* NGSPICE file created from guitpedal_flat.ext - technology: sky130A

.subckt tt_um_guitar_pedal ua[0] ua[1] ui_in[0] VPWR ui_in[1] VGND ui_in[2] ui_in[3] ui_in[4] ui_in[5]
+ ui_in[6] ui_in[7]
X0 VGND.t245 ui_in[4].t0 distortionUnit_5.tgate_1.CTRLB VGND.t244 sky130_fd_pr__nfet_01v8 ad=0.08775 pd=0.92 as=0.08775 ps=0.92 w=0.65 l=0.15
X1 a_20524_36601# a_20524_36601# VPWR.t212 VPWR.t211 sky130_fd_pr__pfet_01v8 ad=0.145 pd=1.29 as=0.145 ps=1.29 w=1 l=1
X2 VGND.t406 VGND.t405 VGND.t406 VGND.t134 sky130_fd_pr__nfet_01v8 ad=0.0609 pd=0.71 as=0 ps=0 w=0.42 l=1
X3 distortionUnit_0.tgate_1.CTRLB ui_in[6].t0 VPWR.t271 distortionUnit_0.sky130_fd_sc_hd__tap_2_0.VPB sky130_fd_pr__pfet_01v8_hvt ad=0.135 pd=1.27 as=0.135 ps=1.27 w=1 l=0.15
X4 VPWR.t270 VPWR.t268 distortionUnit_0.tgate_1.IN VPWR.t269 sky130_fd_pr__pfet_01v8 ad=0.29 pd=2.58 as=0.145 ps=1.29 w=1 l=1
X5 a_7876_23853# VGND.t403 VGND.t404 VGND.t331 sky130_fd_pr__nfet_01v8 ad=0.145 pd=1.29 as=0.29 ps=2.58 w=1 l=1
X6 VGND.t402 VGND.t400 VGND.t402 VGND.t401 sky130_fd_pr__nfet_01v8 ad=0.0609 pd=0.71 as=0 ps=0 w=0.42 l=1
X7 VPWR.t49 a_7752_16807# a_7752_16807# VPWR.t48 sky130_fd_pr__pfet_01v8 ad=0.145 pd=1.29 as=0.145 ps=1.29 w=1 l=1
X8 distortionUnit_4.IN ui_in[3].t0 distortionUnit_5.IN.t3 VPWR.t133 sky130_fd_pr__pfet_01v8 ad=0.29 pd=2.58 as=0.145 ps=1.29 w=1 l=1
X9 ua[1].t5 ui_in[7].t0 distortionUnit_7.IN VPWR.t17 sky130_fd_pr__pfet_01v8 ad=0.145 pd=1.29 as=0.29 ps=2.58 w=1 l=1
X10 distortionUnit_6.IN ui_in[4].t1 distortionUnit_5.tgate_1.IN VGND.t243 sky130_fd_pr__nfet_01v8 ad=0.29 pd=2.58 as=0.145 ps=1.29 w=1 l=1
X11 ua[0].t3 distortionUnit_1.tgate_1.CTRLB distortionUnit_2.IN VGND.t204 sky130_fd_pr__nfet_01v8 ad=0.145 pd=1.29 as=0.29 ps=2.58 w=1 l=1
X12 a_7752_16807# distortionUnit_6.OUT a_8010_16807# VGND.t46 sky130_fd_pr__nfet_01v8 ad=0.145 pd=1.29 as=0.145 ps=1.29 w=1 l=1
X13 distortionUnit_4.tgate_1.IN distortionUnit_4.myOpamp_0.INn a_20746_30481# VGND.t100 sky130_fd_pr__nfet_01v8 ad=0.145 pd=1.29 as=0.145 ps=1.29 w=1 l=1
X14 VPWR.t129 a_20934_16677# distortionUnit_7.tgate_1.IN VPWR.t128 sky130_fd_pr__pfet_01v8 ad=0.145 pd=1.29 as=0.145 ps=1.29 w=1 l=1
X15 ua[1].t1 distortionUnit_7.tgate_1.CTRLB distortionUnit_7.IN VGND.t199 sky130_fd_pr__nfet_01v8 ad=0.29 pd=2.58 as=0.145 ps=1.29 w=1 l=1
X16 VGND.t399 VGND.t398 VGND.t399 VGND.t211 sky130_fd_pr__nfet_01v8 ad=0.0609 pd=0.71 as=0 ps=0 w=0.42 l=1
X17 distortionUnit_1.tgate_1.IN distortionUnit_1.myOpamp_0.INn a_7968_36445# VGND.t56 sky130_fd_pr__nfet_01v8 ad=0.145 pd=1.29 as=0.145 ps=1.29 w=1 l=1
X18 distortionUnit_7.tgate_1.IN distortionUnit_7.myOpamp_0.INn a_21192_16677# VGND.t324 sky130_fd_pr__nfet_01v8 ad=0.145 pd=1.29 as=0.145 ps=1.29 w=1 l=1
X19 a_7752_16807# distortionUnit_6.OUT a_8010_16807# VGND.t44 sky130_fd_pr__nfet_01v8 ad=0.145 pd=1.29 as=0.145 ps=1.29 w=1 l=1
X20 VPWR.t89 ui_in[2].t0 distortionUnit_3.tgate_1.CTRLB distortionUnit_3.sky130_fd_sc_hd__tap_2_0.VPB sky130_fd_pr__pfet_01v8_hvt ad=0.135 pd=1.27 as=0.135 ps=1.27 w=1 l=0.15
X21 distortionUnit_2.IN distortionUnit_1.tgate_1.CTRLB distortionUnit_1.tgate_1.IN VPWR.t181 sky130_fd_pr__pfet_01v8 ad=0.145 pd=1.29 as=0.29 ps=2.58 w=1 l=1
X22 VPWR.t185 ui_in[6].t1 distortionUnit_0.tgate_1.CTRLB distortionUnit_0.sky130_fd_sc_hd__tap_2_0.VPB sky130_fd_pr__pfet_01v8_hvt ad=0.26 pd=2.52 as=0.135 ps=1.27 w=1 l=0.15
X23 distortionUnit_6.tgate_1.CTRLB ui_in[5].t0 VPWR.t78 distortionUnit_6.sky130_fd_sc_hd__tap_2_0.VPB sky130_fd_pr__pfet_01v8_hvt ad=0.135 pd=1.27 as=0.135 ps=1.27 w=1 l=0.15
X24 VGND.t144 a_19680_36146# a_20782_36601# VGND.t143 sky130_fd_pr__nfet_01v8 ad=0.0609 pd=0.71 as=0.0609 ps=0.71 w=0.42 l=1
X25 distortionUnit_0.tgate_1.IN a_7752_16807# VPWR.t47 VPWR.t46 sky130_fd_pr__pfet_01v8 ad=0.145 pd=1.29 as=0.145 ps=1.29 w=1 l=1
X26 VGND.t182 ui_in[3].t1 distortionUnit_4.tgate_1.CTRLB VGND.t181 sky130_fd_pr__nfet_01v8 ad=0.08775 pd=0.92 as=0.08775 ps=0.92 w=0.65 l=0.15
X27 distortionUnit_4.tgate_1.CTRLB ui_in[3].t2 VGND.t4 VGND.t3 sky130_fd_pr__nfet_01v8 ad=0.08775 pd=0.92 as=0.08775 ps=0.92 w=0.65 l=0.15
X28 a_20782_36601# distortionUnit_2.myOpamp_0.INn distortionUnit_2.tgate_1.IN VGND.t135 sky130_fd_pr__nfet_01v8 ad=0.145 pd=1.29 as=0.145 ps=1.29 w=1 l=1
X29 VPWR.t2 ui_in[6].t2 distortionUnit_0.tgate_1.CTRLB distortionUnit_0.sky130_fd_sc_hd__tap_2_0.VPB sky130_fd_pr__pfet_01v8_hvt ad=0.135 pd=1.27 as=0.135 ps=1.27 w=1 l=0.15
X30 VGND.t130 a_19644_30026# a_20746_30481# VGND.t129 sky130_fd_pr__nfet_01v8 ad=0.0609 pd=0.71 as=0.0609 ps=0.71 w=0.42 l=1
X31 distortionUnit_7.IN ui_in[6].t3 distortionUnit_6.OUT VPWR.t4 sky130_fd_pr__pfet_01v8 ad=0.145 pd=1.29 as=0.29 ps=2.58 w=1 l=1
X32 distortionUnit_7.IN distortionUnit_7.tgate_1.CTRLB ua[1].t0 VGND.t198 sky130_fd_pr__nfet_01v8 ad=0.145 pd=1.29 as=0.29 ps=2.58 w=1 l=1
X33 a_7752_16807# VPWR.t265 VPWR.t267 VPWR.t266 sky130_fd_pr__pfet_01v8 ad=0.145 pd=1.29 as=0.29 ps=2.58 w=1 l=1
X34 distortionUnit_6.tgate_1.IN ui_in[5].t1 distortionUnit_6.OUT VGND.t438 sky130_fd_pr__nfet_01v8 ad=0.145 pd=1.29 as=0.29 ps=2.58 w=1 l=1
X35 distortionUnit_3.tgate_1.CTRLB ui_in[2].t1 VPWR.t12 distortionUnit_3.sky130_fd_sc_hd__tap_2_0.VPB sky130_fd_pr__pfet_01v8_hvt ad=0.135 pd=1.27 as=0.135 ps=1.27 w=1 l=0.15
X36 a_7876_23853# a_7876_23853# VPWR.t74 VPWR.t73 sky130_fd_pr__pfet_01v8 ad=0.145 pd=1.29 as=0.145 ps=1.29 w=1 l=1
X37 VPWR.t264 VPWR.t262 distortionUnit_7.tgate_1.IN VPWR.t263 sky130_fd_pr__pfet_01v8 ad=0.29 pd=2.58 as=0.145 ps=1.29 w=1 l=1
X38 a_8010_16807# distortionUnit_0.myOpamp_0.INn distortionUnit_0.tgate_1.IN VGND.t12 sky130_fd_pr__nfet_01v8 ad=0.145 pd=1.29 as=0.145 ps=1.29 w=1 l=1
X39 a_20746_30481# distortionUnit_4.IN a_20488_30481# VGND.t321 sky130_fd_pr__nfet_01v8 ad=0.145 pd=1.29 as=0.145 ps=1.29 w=1 l=1
X40 VGND.t88 a_6912_30102# a_8014_30557# VGND.t87 sky130_fd_pr__nfet_01v8 ad=0.0609 pd=0.71 as=0.0609 ps=0.71 w=0.42 l=1
X41 VPWR.t156 a_7756_30557# a_7756_30557# VPWR.t155 sky130_fd_pr__pfet_01v8 ad=0.145 pd=1.29 as=0.145 ps=1.29 w=1 l=1
X42 VGND.t459 a_20090_16222# a_21192_16677# VGND.t59 sky130_fd_pr__nfet_01v8 ad=0.0609 pd=0.71 as=0.0609 ps=0.71 w=0.42 l=1
X43 distortionUnit_3.tgate_1.CTRLB ui_in[2].t2 VPWR.t1 distortionUnit_3.sky130_fd_sc_hd__tap_2_0.VPB sky130_fd_pr__pfet_01v8_hvt ad=0.135 pd=1.27 as=0.26 ps=2.52 w=1 l=0.15
X44 VGND.t397 VGND.t396 distortionUnit_3.tgate_1.IN VGND.t316 sky130_fd_pr__nfet_01v8 ad=0.29 pd=2.58 as=0.145 ps=1.29 w=1 l=1
X45 distortionUnit_5.tgate_1.CTRLB ui_in[4].t2 VGND.t242 VGND.t241 sky130_fd_pr__nfet_01v8 ad=0.08775 pd=0.92 as=0.08775 ps=0.92 w=0.65 l=0.15
X46 distortionUnit_6.tgate_1.IN distortionUnit_6.myOpamp_0.INn a_20842_23723# VGND.t32 sky130_fd_pr__nfet_01v8 ad=0.145 pd=1.29 as=0.145 ps=1.29 w=1 l=1
X47 VPWR.t261 VPWR.t259 distortionUnit_2.tgate_1.IN VPWR.t260 sky130_fd_pr__pfet_01v8 ad=0.29 pd=2.58 as=0.145 ps=1.29 w=1 l=1
X48 distortionUnit_0.tgate_1.CTRLB ui_in[6].t4 VPWR.t10 distortionUnit_0.sky130_fd_sc_hd__tap_2_0.VPB sky130_fd_pr__pfet_01v8_hvt ad=0.135 pd=1.27 as=0.135 ps=1.27 w=1 l=0.15
X49 a_9762_22154# distortionUnit_5.myOpamp_0.INn VGND.t424 sky130_fd_pr__res_xhigh_po_0p35 l=4
X50 a_8134_23853# distortionUnit_5.myOpamp_0.INn distortionUnit_5.tgate_1.IN VGND.t163 sky130_fd_pr__nfet_01v8 ad=0.145 pd=1.29 as=0.145 ps=1.29 w=1 l=1
X51 a_20782_36601# a_19680_36146# VGND.t142 VGND.t133 sky130_fd_pr__nfet_01v8 ad=0.0609 pd=0.71 as=0.0609 ps=0.71 w=0.42 l=1
X52 a_8014_30557# distortionUnit_3.IN a_7756_30557# VGND.t81 sky130_fd_pr__nfet_01v8 ad=0.145 pd=1.29 as=0.145 ps=1.29 w=1 l=1
X53 VPWR a_19680_36146# VGND sky130_fd_pr__res_xhigh_po_0p35 l=26.11
X54 distortionUnit_4.tgate_1.CTRLB ui_in[3].t3 VGND.t222 VGND.t221 sky130_fd_pr__nfet_01v8 ad=0.08775 pd=0.92 as=0.169 ps=1.82 w=0.65 l=0.15
X55 VGND.t395 VGND.t394 VGND.t395 VGND.t361 sky130_fd_pr__nfet_01v8 ad=0.0609 pd=0.71 as=0 ps=0 w=0.42 l=1
X56 VPWR.t186 a_19740_23268# VGND.t219 sky130_fd_pr__res_xhigh_po_0p35 l=0.16
X57 distortionUnit_5.tgate_1.CTRLB ui_in[4].t3 VGND.t240 VGND.t239 sky130_fd_pr__nfet_01v8 ad=0.08775 pd=0.92 as=0.169 ps=1.82 w=0.65 l=0.15
X58 distortionUnit_6.OUT distortionUnit_0.tgate_1.CTRLB distortionUnit_7.IN VGND.t20 sky130_fd_pr__nfet_01v8 ad=0.145 pd=1.29 as=0.29 ps=2.58 w=1 l=1
X59 distortionUnit_2.IN ui_in[1].t0 distortionUnit_3.IN VPWR.t184 sky130_fd_pr__pfet_01v8 ad=0.29 pd=2.58 as=0.145 ps=1.29 w=1 l=1
X60 a_6908_16352# a_6908_16352# VGND.t51 VGND.t50 sky130_fd_pr__nfet_01v8 ad=0.0609 pd=0.71 as=0.0609 ps=0.71 w=0.42 l=1
X61 distortionUnit_1.tgate_1.CTRLB ui_in[0].t0 VPWR.t307 distortionUnit_1.sky130_fd_sc_hd__tap_2_0.VPB sky130_fd_pr__pfet_01v8_hvt ad=0.135 pd=1.27 as=0.26 ps=2.52 w=1 l=0.15
X62 VPWR.t80 ui_in[0].t1 distortionUnit_1.tgate_1.CTRLB distortionUnit_1.sky130_fd_sc_hd__tap_2_0.VPB sky130_fd_pr__pfet_01v8_hvt ad=0.135 pd=1.27 as=0.135 ps=1.27 w=1 l=0.15
X63 distortionUnit_7.tgate_1.IN a_20934_16677# VPWR.t127 VPWR.t126 sky130_fd_pr__pfet_01v8 ad=0.145 pd=1.29 as=0.145 ps=1.29 w=1 l=1
X64 VGND.t209 ui_in[1].t1 distortionUnit_2.tgate_1.CTRLB VGND.t208 sky130_fd_pr__nfet_01v8 ad=0.08775 pd=0.92 as=0.08775 ps=0.92 w=0.65 l=0.15
X65 distortionUnit_4.tgate_1.IN a_20488_30481# VPWR.t179 VPWR.t178 sky130_fd_pr__pfet_01v8 ad=0.145 pd=1.29 as=0.145 ps=1.29 w=1 l=1
X66 distortionUnit_6.tgate_1.IN a_20584_23723# VPWR.t296 VPWR.t295 sky130_fd_pr__pfet_01v8 ad=0.145 pd=1.29 as=0.145 ps=1.29 w=1 l=1
X67 distortionUnit_2.tgate_1.CTRLB ui_in[1].t2 VGND.t227 VGND.t226 sky130_fd_pr__nfet_01v8 ad=0.08775 pd=0.92 as=0.08775 ps=0.92 w=0.65 l=0.15
X68 a_21192_16677# a_20090_16222# VGND.t458 VGND.t434 sky130_fd_pr__nfet_01v8 ad=0.0609 pd=0.71 as=0.0609 ps=0.71 w=0.42 l=1
X69 a_6866_35990# a_6866_35990# VGND.t451 VGND.t101 sky130_fd_pr__nfet_01v8 ad=0.0609 pd=0.71 as=0.0609 ps=0.71 w=0.42 l=1
X70 distortionUnit_7.tgate_1.IN a_20934_16677# VPWR.t125 VPWR.t124 sky130_fd_pr__pfet_01v8 ad=0.145 pd=1.29 as=0.145 ps=1.29 w=1 l=1
X71 VPWR.t72 a_7876_23853# distortionUnit_5.tgate_1.IN VPWR.t71 sky130_fd_pr__pfet_01v8 ad=0.145 pd=1.29 as=0.145 ps=1.29 w=1 l=1
X72 distortionUnit_3.tgate_1.IN distortionUnit_3.myOpamp_0.INn a_8014_30557# VGND.t180 sky130_fd_pr__nfet_01v8 ad=0.145 pd=1.29 as=0.145 ps=1.29 w=1 l=1
X73 a_20842_23723# distortionUnit_6.IN a_20584_23723# VGND.t214 sky130_fd_pr__nfet_01v8 ad=0.145 pd=1.29 as=0.145 ps=1.29 w=1 l=1
X74 a_8014_30557# a_6912_30102# VGND.t86 VGND.t85 sky130_fd_pr__nfet_01v8 ad=0.0609 pd=0.71 as=0.0609 ps=0.71 w=0.42 l=1
X75 distortionUnit_1.tgate_1.IN ui_in[0].t2 distortionUnit_2.IN VGND.t430 sky130_fd_pr__nfet_01v8 ad=0.145 pd=1.29 as=0.29 ps=2.58 w=1 l=1
X76 distortionUnit_5.tgate_1.IN distortionUnit_5.myOpamp_0.INn a_8134_23853# VGND.t159 sky130_fd_pr__nfet_01v8 ad=0.145 pd=1.29 as=0.145 ps=1.29 w=1 l=1
X77 a_20842_23723# distortionUnit_6.IN a_20584_23723# VGND.t213 sky130_fd_pr__nfet_01v8 ad=0.145 pd=1.29 as=0.145 ps=1.29 w=1 l=1
X78 VGND.t393 VGND.t392 VGND.t393 VGND.t173 sky130_fd_pr__nfet_01v8 ad=0.0609 pd=0.71 as=0 ps=0 w=0.42 l=1
X79 VGND.t391 VGND.t390 VGND.t391 VGND.t11 sky130_fd_pr__nfet_01v8 ad=0.0609 pd=0.71 as=0 ps=0 w=0.42 l=1
X80 VGND.t238 ui_in[4].t4 distortionUnit_5.tgate_1.CTRLB VGND.t237 sky130_fd_pr__nfet_01v8 ad=0.08775 pd=0.92 as=0.08775 ps=0.92 w=0.65 l=0.15
X81 distortionUnit_6.tgate_1.CTRLB ui_in[5].t2 VGND.t453 VGND.t452 sky130_fd_pr__nfet_01v8 ad=0.08775 pd=0.92 as=0.08775 ps=0.92 w=0.65 l=0.15
X82 distortionUnit_5.tgate_1.IN distortionUnit_5.myOpamp_0.INn a_8134_23853# VGND.t301 sky130_fd_pr__nfet_01v8 ad=0.145 pd=1.29 as=0.145 ps=1.29 w=1 l=1
X83 distortionUnit_3.IN ui_in[1].t3 distortionUnit_2.IN VPWR.t25 sky130_fd_pr__pfet_01v8 ad=0.145 pd=1.29 as=0.29 ps=2.58 w=1 l=1
X84 VPWR.t54 ui_in[0].t3 distortionUnit_1.tgate_1.CTRLB distortionUnit_1.sky130_fd_sc_hd__tap_2_0.VPB sky130_fd_pr__pfet_01v8_hvt ad=0.135 pd=1.27 as=0.135 ps=1.27 w=1 l=0.15
X85 a_7756_30557# VGND.t388 VGND.t389 VGND.t297 sky130_fd_pr__nfet_01v8 ad=0.145 pd=1.29 as=0.29 ps=2.58 w=1 l=1
X86 distortionUnit_7.tgate_1.IN distortionUnit_7.myOpamp_0.INn VGND.t92 sky130_fd_pr__res_xhigh_po_0p35 l=10
X87 distortionUnit_6.tgate_1.IN distortionUnit_6.tgate_1.CTRLB distortionUnit_6.OUT VPWR.t273 sky130_fd_pr__pfet_01v8 ad=0.29 pd=2.58 as=0.145 ps=1.29 w=1 l=1
X88 ua[0].t0 ui_in[0].t4 distortionUnit_2.IN VPWR.t86 sky130_fd_pr__pfet_01v8 ad=0.29 pd=2.58 as=0.145 ps=1.29 w=1 l=1
X89 VGND.t387 VGND.t385 VGND.t386 VGND.t352 sky130_fd_pr__nfet_01v8 ad=0.1218 pd=1.42 as=0 ps=0 w=0.42 l=1
X90 distortionUnit_4.tgate_1.IN ui_in[3].t4 distortionUnit_5.IN.t1 VGND.t189 sky130_fd_pr__nfet_01v8 ad=0.145 pd=1.29 as=0.29 ps=2.58 w=1 l=1
X91 a_20488_30481# distortionUnit_4.IN a_20746_30481# VGND.t123 sky130_fd_pr__nfet_01v8 ad=0.145 pd=1.29 as=0.145 ps=1.29 w=1 l=1
X92 VPWR.t123 a_20934_16677# a_20934_16677# VPWR.t122 sky130_fd_pr__pfet_01v8 ad=0.145 pd=1.29 as=0.145 ps=1.29 w=1 l=1
X93 distortionUnit_7.tgate_1.CTRLB ui_in[7].t1 VPWR.t24 distortionUnit_7.sky130_fd_sc_hd__tap_2_0.VPB sky130_fd_pr__pfet_01v8_hvt ad=0.135 pd=1.27 as=0.26 ps=2.52 w=1 l=0.15
X94 VPWR.t177 a_20488_30481# a_20488_30481# VPWR.t176 sky130_fd_pr__pfet_01v8 ad=0.145 pd=1.29 as=0.145 ps=1.29 w=1 l=1
X95 VGND.t384 VGND.t383 VGND.t384 VGND.t313 sky130_fd_pr__nfet_01v8 ad=0.0609 pd=0.71 as=0 ps=0 w=0.42 l=1
X96 a_7756_30557# a_7756_30557# VPWR.t154 VPWR.t153 sky130_fd_pr__pfet_01v8 ad=0.145 pd=1.29 as=0.145 ps=1.29 w=1 l=1
X97 distortionUnit_2.tgate_1.IN distortionUnit_2.myOpamp_0.INn VGND.t168 sky130_fd_pr__res_xhigh_po_0p35 l=10
X98 VPWR.t294 a_20584_23723# a_20584_23723# VPWR.t293 sky130_fd_pr__pfet_01v8 ad=0.145 pd=1.29 as=0.145 ps=1.29 w=1 l=1
X99 VGND.t382 VGND.t380 VGND.t381 VGND.t310 sky130_fd_pr__nfet_01v8 ad=0.1218 pd=1.42 as=0 ps=0 w=0.42 l=1
X100 a_20584_23723# distortionUnit_6.IN a_20842_23723# VGND.t212 sky130_fd_pr__nfet_01v8 ad=0.145 pd=1.29 as=0.145 ps=1.29 w=1 l=1
X101 a_20934_16677# distortionUnit_7.IN a_21192_16677# VGND.t61 sky130_fd_pr__nfet_01v8 ad=0.145 pd=1.29 as=0.145 ps=1.29 w=1 l=1
X102 a_20584_23723# VGND.t378 VGND.t379 VGND.t288 sky130_fd_pr__nfet_01v8 ad=0.145 pd=1.29 as=0.29 ps=2.58 w=1 l=1
X103 distortionUnit_2.tgate_1.CTRLB ui_in[1].t4 VPWR.t84 distortionUnit_2.sky130_fd_sc_hd__tap_2_0.VPB sky130_fd_pr__pfet_01v8_hvt ad=0.135 pd=1.27 as=0.135 ps=1.27 w=1 l=0.15
X104 distortionUnit_4.tgate_1.CTRLB ui_in[3].t5 VGND.t63 VGND.t62 sky130_fd_pr__nfet_01v8 ad=0.08775 pd=0.92 as=0.08775 ps=0.92 w=0.65 l=0.15
X105 distortionUnit_0.tgate_1.IN a_7752_16807# VPWR.t45 VPWR.t44 sky130_fd_pr__pfet_01v8 ad=0.145 pd=1.29 as=0.145 ps=1.29 w=1 l=1
X106 VGND.t416 ui_in[5].t3 distortionUnit_6.tgate_1.CTRLB VGND.t415 sky130_fd_pr__nfet_01v8 ad=0.08775 pd=0.92 as=0.08775 ps=0.92 w=0.65 l=0.15
X107 VPWR.t297 ui_in[6].t5 distortionUnit_0.tgate_1.CTRLB distortionUnit_0.sky130_fd_sc_hd__tap_2_0.VPB sky130_fd_pr__pfet_01v8_hvt ad=0.135 pd=1.27 as=0.135 ps=1.27 w=1 l=0.15
X108 distortionUnit_7.tgate_1.CTRLB ui_in[7].t2 VPWR.t300 distortionUnit_7.sky130_fd_sc_hd__tap_2_0.VPB sky130_fd_pr__pfet_01v8_hvt ad=0.135 pd=1.27 as=0.135 ps=1.27 w=1 l=0.15
X109 VPWR.t191 ui_in[7].t3 distortionUnit_7.tgate_1.CTRLB distortionUnit_7.sky130_fd_sc_hd__tap_2_0.VPB sky130_fd_pr__pfet_01v8_hvt ad=0.135 pd=1.27 as=0.135 ps=1.27 w=1 l=0.15
X110 distortionUnit_2.IN distortionUnit_1.tgate_1.CTRLB ua[0].t2 VGND.t203 sky130_fd_pr__nfet_01v8 ad=0.29 pd=2.58 as=0.145 ps=1.29 w=1 l=1
X111 distortionUnit_0.tgate_1.IN distortionUnit_0.tgate_1.CTRLB distortionUnit_7.IN VPWR.t9 sky130_fd_pr__pfet_01v8 ad=0.29 pd=2.58 as=0.145 ps=1.29 w=1 l=1
X112 VGND.t377 VGND.t376 VGND.t377 VGND.t97 sky130_fd_pr__nfet_01v8 ad=0.0609 pd=0.71 as=0 ps=0 w=0.42 l=1
X113 VGND.t375 VGND.t373 VGND.t375 VGND.t374 sky130_fd_pr__nfet_01v8 ad=0.0609 pd=0.71 as=0 ps=0 w=0.42 l=1
X114 a_20746_30481# distortionUnit_4.myOpamp_0.INn distortionUnit_4.tgate_1.IN VGND.t99 sky130_fd_pr__nfet_01v8 ad=0.145 pd=1.29 as=0.145 ps=1.29 w=1 l=1
X115 VPWR.t109 a_7710_36445# a_7710_36445# VPWR.t108 sky130_fd_pr__pfet_01v8 ad=0.145 pd=1.29 as=0.145 ps=1.29 w=1 l=1
X116 distortionUnit_2.tgate_1.IN distortionUnit_2.myOpamp_0.INn a_20782_36601# VGND.t134 sky130_fd_pr__nfet_01v8 ad=0.145 pd=1.29 as=0.145 ps=1.29 w=1 l=1
X117 VPWR.t152 a_7756_30557# distortionUnit_3.tgate_1.IN VPWR.t151 sky130_fd_pr__pfet_01v8 ad=0.145 pd=1.29 as=0.145 ps=1.29 w=1 l=1
X118 VGND.t450 a_6866_35990# a_6866_35990# VGND.t54 sky130_fd_pr__nfet_01v8 ad=0.0609 pd=0.71 as=0.0609 ps=0.71 w=0.42 l=1
X119 distortionUnit_1.tgate_1.IN distortionUnit_1.tgate_1.CTRLB distortionUnit_2.IN VPWR.t180 sky130_fd_pr__pfet_01v8 ad=0.29 pd=2.58 as=0.145 ps=1.29 w=1 l=1
X120 VGND.t457 a_20090_16222# a_20090_16222# VGND.t433 sky130_fd_pr__nfet_01v8 ad=0.0609 pd=0.71 as=0.0609 ps=0.71 w=0.42 l=1
X121 VPWR.t11 ui_in[6].t6 distortionUnit_0.tgate_1.CTRLB distortionUnit_0.sky130_fd_sc_hd__tap_2_0.VPB sky130_fd_pr__pfet_01v8_hvt ad=0.135 pd=1.27 as=0.135 ps=1.27 w=1 l=0.15
X122 distortionUnit_3.tgate_1.CTRLB ui_in[2].t3 VPWR.t53 distortionUnit_3.sky130_fd_sc_hd__tap_2_0.VPB sky130_fd_pr__pfet_01v8_hvt ad=0.135 pd=1.27 as=0.135 ps=1.27 w=1 l=0.15
X123 a_7968_36445# ua[0].t4 a_7710_36445# VGND.t106 sky130_fd_pr__nfet_01v8 ad=0.145 pd=1.29 as=0.145 ps=1.29 w=1 l=1
X124 a_8014_30557# distortionUnit_3.myOpamp_0.INn distortionUnit_3.tgate_1.IN VGND.t79 sky130_fd_pr__nfet_01v8 ad=0.145 pd=1.29 as=0.145 ps=1.29 w=1 l=1
X125 distortionUnit_2.tgate_1.CTRLB ui_in[1].t5 VPWR.t192 distortionUnit_2.sky130_fd_sc_hd__tap_2_0.VPB sky130_fd_pr__pfet_01v8_hvt ad=0.135 pd=1.27 as=0.26 ps=2.52 w=1 l=0.15
X126 distortionUnit_2.tgate_1.IN a_20524_36601# VPWR.t210 VPWR.t209 sky130_fd_pr__pfet_01v8 ad=0.145 pd=1.29 as=0.145 ps=1.29 w=1 l=1
X127 VGND.t167 ui_in[3].t6 distortionUnit_4.tgate_1.CTRLB VGND.t166 sky130_fd_pr__nfet_01v8 ad=0.08775 pd=0.92 as=0.08775 ps=0.92 w=0.65 l=0.15
X128 VPWR.t26 a_19644_30026# VGND.t66 sky130_fd_pr__res_xhigh_po_0p35 l=0.16
X129 distortionUnit_6.OUT ui_in[5].t4 distortionUnit_6.tgate_1.IN VGND.t26 sky130_fd_pr__nfet_01v8 ad=0.29 pd=2.58 as=0.145 ps=1.29 w=1 l=1
X130 distortionUnit_2.tgate_1.IN a_20524_36601# VPWR.t208 VPWR.t207 sky130_fd_pr__pfet_01v8 ad=0.145 pd=1.29 as=0.145 ps=1.29 w=1 l=1
X131 a_20488_30481# a_20488_30481# VPWR.t175 VPWR.t174 sky130_fd_pr__pfet_01v8 ad=0.145 pd=1.29 as=0.145 ps=1.29 w=1 l=1
X132 a_20090_16222# a_20090_16222# VGND.t456 VGND.t58 sky130_fd_pr__nfet_01v8 ad=0.0609 pd=0.71 as=0.0609 ps=0.71 w=0.42 l=1
X133 a_19644_30026# a_19644_30026# VGND.t128 VGND.t127 sky130_fd_pr__nfet_01v8 ad=0.0609 pd=0.71 as=0.0609 ps=0.71 w=0.42 l=1
X134 a_20524_36601# distortionUnit_2.IN a_20782_36601# VGND.t143 sky130_fd_pr__nfet_01v8 ad=0.145 pd=1.29 as=0.145 ps=1.29 w=1 l=1
X135 distortionUnit_3.tgate_1.CTRLB ui_in[2].t4 VPWR.t303 distortionUnit_3.sky130_fd_sc_hd__tap_2_0.VPB sky130_fd_pr__pfet_01v8_hvt ad=0.135 pd=1.27 as=0.135 ps=1.27 w=1 l=0.15
X136 VPWR.t27 ui_in[2].t5 distortionUnit_3.tgate_1.CTRLB distortionUnit_3.sky130_fd_sc_hd__tap_2_0.VPB sky130_fd_pr__pfet_01v8_hvt ad=0.26 pd=2.52 as=0.135 ps=1.27 w=1 l=0.15
X137 a_7710_36445# VPWR.t256 VPWR.t258 VPWR.t257 sky130_fd_pr__pfet_01v8 ad=0.145 pd=1.29 as=0.29 ps=2.58 w=1 l=1
X138 VGND.t372 VGND.t371 distortionUnit_6.tgate_1.IN VGND.t275 sky130_fd_pr__nfet_01v8 ad=0.29 pd=2.58 as=0.145 ps=1.29 w=1 l=1
X139 distortionUnit_1.tgate_1.IN distortionUnit_1.myOpamp_0.INn a_7968_36445# VGND.t55 sky130_fd_pr__nfet_01v8 ad=0.145 pd=1.29 as=0.145 ps=1.29 w=1 l=1
X140 VGND.t370 VGND.t369 distortionUnit_5.tgate_1.IN VGND.t270 sky130_fd_pr__nfet_01v8 ad=0.29 pd=2.58 as=0.145 ps=1.29 w=1 l=1
X141 distortionUnit_7.tgate_1.IN distortionUnit_7.tgate_1.CTRLB ua[1].t3 VPWR.t158 sky130_fd_pr__pfet_01v8 ad=0.29 pd=2.58 as=0.145 ps=1.29 w=1 l=1
X142 VGND.t70 ui_in[3].t7 distortionUnit_4.tgate_1.CTRLB VGND.t69 sky130_fd_pr__nfet_01v8 ad=0.169 pd=1.82 as=0.08775 ps=0.92 w=0.65 l=0.15
X143 distortionUnit_3.tgate_1.IN distortionUnit_3.myOpamp_0.INn a_8014_30557# VGND.t77 sky130_fd_pr__nfet_01v8 ad=0.145 pd=1.29 as=0.145 ps=1.29 w=1 l=1
X144 a_20842_23723# distortionUnit_6.myOpamp_0.INn distortionUnit_6.tgate_1.IN VGND.t31 sky130_fd_pr__nfet_01v8 ad=0.145 pd=1.29 as=0.145 ps=1.29 w=1 l=1
X145 VPWR.t70 a_7876_23853# a_7876_23853# VPWR.t69 sky130_fd_pr__pfet_01v8 ad=0.145 pd=1.29 as=0.145 ps=1.29 w=1 l=1
X146 distortionUnit_0.tgate_1.CTRLB ui_in[6].t7 VPWR.t23 distortionUnit_0.sky130_fd_sc_hd__tap_2_0.VPB sky130_fd_pr__pfet_01v8_hvt ad=0.135 pd=1.27 as=0.135 ps=1.27 w=1 l=0.15
X147 VGND.t368 VGND.t366 VGND.t368 VGND.t367 sky130_fd_pr__nfet_01v8 ad=0.0609 pd=0.71 as=0 ps=0 w=0.42 l=1
X148 a_7710_36445# ua[0].t5 a_7968_36445# VGND.t41 sky130_fd_pr__nfet_01v8 ad=0.145 pd=1.29 as=0.145 ps=1.29 w=1 l=1
X149 distortionUnit_6.tgate_1.CTRLB ui_in[5].t5 VGND.t40 VGND.t39 sky130_fd_pr__nfet_01v8 ad=0.08775 pd=0.92 as=0.08775 ps=0.92 w=0.65 l=0.15
X150 VPWR.t121 a_20934_16677# a_20934_16677# VPWR.t120 sky130_fd_pr__pfet_01v8 ad=0.145 pd=1.29 as=0.145 ps=1.29 w=1 l=1
X151 distortionUnit_3.tgate_1.IN distortionUnit_3.myOpamp_0.INn a_8014_30557# VGND.t179 sky130_fd_pr__nfet_01v8 ad=0.145 pd=1.29 as=0.145 ps=1.29 w=1 l=1
X152 distortionUnit_1.tgate_1.IN distortionUnit_1.myOpamp_0.INn VGND.t408 sky130_fd_pr__res_xhigh_po_0p35 l=10
X153 VGND.t49 a_6908_16352# a_6908_16352# VGND.t10 sky130_fd_pr__nfet_01v8 ad=0.0609 pd=0.71 as=0.0609 ps=0.71 w=0.42 l=1
X154 VPWR.t206 a_20524_36601# a_20524_36601# VPWR.t205 sky130_fd_pr__pfet_01v8 ad=0.145 pd=1.29 as=0.145 ps=1.29 w=1 l=1
X155 a_8134_23853# distortionUnit_5.IN.t12 a_7876_23853# VGND.t108 sky130_fd_pr__nfet_01v8 ad=0.145 pd=1.29 as=0.145 ps=1.29 w=1 l=1
X156 distortionUnit_7.IN ui_in[6].t8 distortionUnit_0.tgate_1.IN VGND.t207 sky130_fd_pr__nfet_01v8 ad=0.29 pd=2.58 as=0.145 ps=1.29 w=1 l=1
X157 VPWR.t204 a_20524_36601# a_20524_36601# VPWR.t203 sky130_fd_pr__pfet_01v8 ad=0.145 pd=1.29 as=0.145 ps=1.29 w=1 l=1
X158 VPWR.t5 ui_in[0].t5 distortionUnit_1.tgate_1.CTRLB distortionUnit_1.sky130_fd_sc_hd__tap_2_0.VPB sky130_fd_pr__pfet_01v8_hvt ad=0.135 pd=1.27 as=0.135 ps=1.27 w=1 l=0.15
X159 VPWR.t173 a_20488_30481# distortionUnit_4.tgate_1.IN VPWR.t172 sky130_fd_pr__pfet_01v8 ad=0.145 pd=1.29 as=0.145 ps=1.29 w=1 l=1
X160 distortionUnit_1.tgate_1.IN a_7710_36445# VPWR.t107 VPWR.t106 sky130_fd_pr__pfet_01v8 ad=0.145 pd=1.29 as=0.145 ps=1.29 w=1 l=1
X161 distortionUnit_1.tgate_1.CTRLB ui_in[0].t6 VPWR.t159 distortionUnit_1.sky130_fd_sc_hd__tap_2_0.VPB sky130_fd_pr__pfet_01v8_hvt ad=0.135 pd=1.27 as=0.135 ps=1.27 w=1 l=0.15
X162 distortionUnit_2.IN ui_in[0].t7 distortionUnit_1.tgate_1.IN VGND.t42 sky130_fd_pr__nfet_01v8 ad=0.29 pd=2.58 as=0.145 ps=1.29 w=1 l=1
X163 a_20782_36601# distortionUnit_2.myOpamp_0.INn distortionUnit_2.tgate_1.IN VGND.t133 sky130_fd_pr__nfet_01v8 ad=0.145 pd=1.29 as=0.145 ps=1.29 w=1 l=1
X164 VGND.t365 VGND.t363 VGND.t364 VGND.t278 sky130_fd_pr__nfet_01v8 ad=0.1218 pd=1.42 as=0 ps=0 w=0.42 l=1
X165 distortionUnit_3.tgate_1.IN distortionUnit_3.myOpamp_0.INn VGND.t27 sky130_fd_pr__res_xhigh_po_0p35 l=10
X166 distortionUnit_4.tgate_1.IN distortionUnit_4.tgate_1.CTRLB distortionUnit_5.IN.t7 VPWR.t309 sky130_fd_pr__pfet_01v8 ad=0.29 pd=2.58 as=0.145 ps=1.29 w=1 l=1
X167 ua[1].t2 distortionUnit_7.tgate_1.CTRLB distortionUnit_7.tgate_1.IN VPWR.t157 sky130_fd_pr__pfet_01v8 ad=0.145 pd=1.29 as=0.29 ps=2.58 w=1 l=1
X168 VGND.t362 VGND.t360 distortionUnit_0.tgate_1.IN VGND.t361 sky130_fd_pr__nfet_01v8 ad=0.29 pd=2.58 as=0.145 ps=1.29 w=1 l=1
X169 VGND.t146 ui_in[2].t6 distortionUnit_3.tgate_1.CTRLB VGND.t145 sky130_fd_pr__nfet_01v8 ad=0.08775 pd=0.92 as=0.08775 ps=0.92 w=0.65 l=0.15
X170 VGND.t359 VGND.t358 VGND.t359 VGND.t29 sky130_fd_pr__nfet_01v8 ad=0.0609 pd=0.71 as=0 ps=0 w=0.42 l=1
X171 a_8010_16807# distortionUnit_6.OUT a_7752_16807# VGND.t50 sky130_fd_pr__nfet_01v8 ad=0.145 pd=1.29 as=0.145 ps=1.29 w=1 l=1
X172 a_20934_16677# VPWR.t253 VPWR.t255 VPWR.t254 sky130_fd_pr__pfet_01v8 ad=0.145 pd=1.29 as=0.29 ps=2.58 w=1 l=1
X173 VPWR a_6866_35990# VGND sky130_fd_pr__res_xhigh_po_0p35 l=26.11
X174 distortionUnit_0.tgate_1.IN distortionUnit_0.myOpamp_0.INn VGND.t186 sky130_fd_pr__res_xhigh_po_0p35 l=10
X175 distortionUnit_6.tgate_1.CTRLB ui_in[5].t6 VGND.t103 VGND.t102 sky130_fd_pr__nfet_01v8 ad=0.08775 pd=0.92 as=0.169 ps=1.82 w=0.65 l=0.15
X176 VGND.t84 a_6912_30102# a_8014_30557# VGND.t83 sky130_fd_pr__nfet_01v8 ad=0.0609 pd=0.71 as=0.0609 ps=0.71 w=0.42 l=1
X177 VPWR.t182 a_7032_23398# VGND.t206 sky130_fd_pr__res_xhigh_po_0p35 l=0.16
X178 VGND.t357 VGND.t356 VGND.t357 VGND.t172 sky130_fd_pr__nfet_01v8 ad=0.0609 pd=0.71 as=0 ps=0 w=0.42 l=1
X179 VGND.t197 ui_in[5].t7 distortionUnit_6.tgate_1.CTRLB VGND.t196 sky130_fd_pr__nfet_01v8 ad=0.08775 pd=0.92 as=0.08775 ps=0.92 w=0.65 l=0.15
X180 distortionUnit_1.tgate_1.CTRLB ui_in[0].t8 VPWR.t52 distortionUnit_1.sky130_fd_sc_hd__tap_2_0.VPB sky130_fd_pr__pfet_01v8_hvt ad=0.135 pd=1.27 as=0.135 ps=1.27 w=1 l=0.15
X181 distortionUnit_7.tgate_1.CTRLB ui_in[7].t4 VPWR.t16 distortionUnit_7.sky130_fd_sc_hd__tap_2_0.VPB sky130_fd_pr__pfet_01v8_hvt ad=0.135 pd=1.27 as=0.135 ps=1.27 w=1 l=0.15
X182 a_20524_36601# VPWR.t250 VPWR.t252 VPWR.t251 sky130_fd_pr__pfet_01v8 ad=0.145 pd=1.29 as=0.29 ps=2.58 w=1 l=1
X183 VPWR.t50 ui_in[7].t5 distortionUnit_7.tgate_1.CTRLB distortionUnit_7.sky130_fd_sc_hd__tap_2_0.VPB sky130_fd_pr__pfet_01v8_hvt ad=0.26 pd=2.52 as=0.135 ps=1.27 w=1 l=0.15
X184 VPWR.t3 a_19680_36146# VGND.t13 sky130_fd_pr__res_xhigh_po_0p35 l=0.16
X185 distortionUnit_1.tgate_1.CTRLB ui_in[0].t9 VGND.t154 VGND.t153 sky130_fd_pr__nfet_01v8 ad=0.08775 pd=0.92 as=0.169 ps=1.82 w=0.65 l=0.15
X186 VGND.t418 ui_in[0].t10 distortionUnit_1.tgate_1.CTRLB VGND.t417 sky130_fd_pr__nfet_01v8 ad=0.08775 pd=0.92 as=0.08775 ps=0.92 w=0.65 l=0.15
X187 distortionUnit_7.IN distortionUnit_0.tgate_1.CTRLB distortionUnit_0.tgate_1.IN VPWR.t8 sky130_fd_pr__pfet_01v8 ad=0.145 pd=1.29 as=0.29 ps=2.58 w=1 l=1
X188 distortionUnit_0.tgate_1.IN distortionUnit_0.myOpamp_0.INn a_8010_16807# VGND.t11 sky130_fd_pr__nfet_01v8 ad=0.145 pd=1.29 as=0.145 ps=1.29 w=1 l=1
X189 distortionUnit_5.IN.t9 distortionUnit_4.tgate_1.CTRLB distortionUnit_4.IN VGND.t461 sky130_fd_pr__nfet_01v8 ad=0.29 pd=2.58 as=0.145 ps=1.29 w=1 l=1
X190 distortionUnit_3.tgate_1.CTRLB ui_in[2].t7 VGND.t412 VGND.t411 sky130_fd_pr__nfet_01v8 ad=0.08775 pd=0.92 as=0.08775 ps=0.92 w=0.65 l=0.15
X191 VPWR.t43 a_7752_16807# a_7752_16807# VPWR.t42 sky130_fd_pr__pfet_01v8 ad=0.145 pd=1.29 as=0.145 ps=1.29 w=1 l=1
X192 VGND.t355 VGND.t354 VGND.t355 VGND.t267 sky130_fd_pr__nfet_01v8 ad=0.0609 pd=0.71 as=0 ps=0 w=0.42 l=1
X193 VPWR.t7 ui_in[7].t6 distortionUnit_7.tgate_1.CTRLB distortionUnit_7.sky130_fd_sc_hd__tap_2_0.VPB sky130_fd_pr__pfet_01v8_hvt ad=0.135 pd=1.27 as=0.135 ps=1.27 w=1 l=0.15
X194 VGND.t445 a_19740_23268# a_20842_23723# VGND.t210 sky130_fd_pr__nfet_01v8 ad=0.0609 pd=0.71 as=0.0609 ps=0.71 w=0.42 l=1
X195 VPWR.t14 ui_in[3].t8 distortionUnit_4.tgate_1.CTRLB distortionUnit_4.sky130_fd_sc_hd__tap_2_0.VPB sky130_fd_pr__pfet_01v8_hvt ad=0.135 pd=1.27 as=0.135 ps=1.27 w=1 l=0.15
X196 distortionUnit_4.tgate_1.IN distortionUnit_4.myOpamp_0.INn a_20746_30481# VGND.t98 sky130_fd_pr__nfet_01v8 ad=0.145 pd=1.29 as=0.145 ps=1.29 w=1 l=1
X197 ua[1].t7 ui_in[7].t7 distortionUnit_7.tgate_1.IN VGND.t95 sky130_fd_pr__nfet_01v8 ad=0.29 pd=2.58 as=0.145 ps=1.29 w=1 l=1
X198 a_21192_16677# distortionUnit_7.IN a_20934_16677# VGND.t60 sky130_fd_pr__nfet_01v8 ad=0.145 pd=1.29 as=0.145 ps=1.29 w=1 l=1
X199 distortionUnit_3.tgate_1.CTRLB ui_in[2].t8 VGND.t113 VGND.t112 sky130_fd_pr__nfet_01v8 ad=0.08775 pd=0.92 as=0.169 ps=1.82 w=0.65 l=0.15
X200 VPWR.t150 a_7756_30557# a_7756_30557# VPWR.t149 sky130_fd_pr__pfet_01v8 ad=0.145 pd=1.29 as=0.145 ps=1.29 w=1 l=1
X201 a_7752_16807# VGND.t351 VGND.t353 VGND.t352 sky130_fd_pr__nfet_01v8 ad=0.145 pd=1.29 as=0.29 ps=2.58 w=1 l=1
X202 VGND.t350 VGND.t348 VGND.t350 VGND.t349 sky130_fd_pr__nfet_01v8 ad=0.0609 pd=0.71 as=0 ps=0 w=0.42 l=1
X203 distortionUnit_2.tgate_1.CTRLB ui_in[1].t6 VPWR.t136 distortionUnit_2.sky130_fd_sc_hd__tap_2_0.VPB sky130_fd_pr__pfet_01v8_hvt ad=0.135 pd=1.27 as=0.135 ps=1.27 w=1 l=0.15
X204 distortionUnit_0.tgate_1.CTRLB ui_in[6].t9 VGND.t18 VGND.t17 sky130_fd_pr__nfet_01v8 ad=0.08775 pd=0.92 as=0.169 ps=1.82 w=0.65 l=0.15
X205 VGND.t201 ui_in[0].t11 distortionUnit_1.tgate_1.CTRLB VGND.t200 sky130_fd_pr__nfet_01v8 ad=0.08775 pd=0.92 as=0.08775 ps=0.92 w=0.65 l=0.15
X206 VGND.t347 VGND.t346 VGND.t347 VGND.t57 sky130_fd_pr__nfet_01v8 ad=0.0609 pd=0.71 as=0 ps=0 w=0.42 l=1
X207 VPWR.t87 ui_in[1].t7 distortionUnit_2.tgate_1.CTRLB distortionUnit_2.sky130_fd_sc_hd__tap_2_0.VPB sky130_fd_pr__pfet_01v8_hvt ad=0.135 pd=1.27 as=0.135 ps=1.27 w=1 l=0.15
X208 a_7876_23853# distortionUnit_5.IN.t13 a_8134_23853# VGND.t157 sky130_fd_pr__nfet_01v8 ad=0.145 pd=1.29 as=0.145 ps=1.29 w=1 l=1
X209 VGND.t141 a_19680_36146# a_20782_36601# VGND.t140 sky130_fd_pr__nfet_01v8 ad=0.0609 pd=0.71 as=0.0609 ps=0.71 w=0.42 l=1
X210 VGND.t345 VGND.t344 VGND.t345 VGND.t260 sky130_fd_pr__nfet_01v8 ad=0.0609 pd=0.71 as=0 ps=0 w=0.42 l=1
X211 VPWR.t302 ui_in[7].t8 distortionUnit_7.tgate_1.CTRLB distortionUnit_7.sky130_fd_sc_hd__tap_2_0.VPB sky130_fd_pr__pfet_01v8_hvt ad=0.135 pd=1.27 as=0.135 ps=1.27 w=1 l=0.15
X212 distortionUnit_7.tgate_1.CTRLB ui_in[7].t9 VPWR.t299 distortionUnit_7.sky130_fd_sc_hd__tap_2_0.VPB sky130_fd_pr__pfet_01v8_hvt ad=0.135 pd=1.27 as=0.135 ps=1.27 w=1 l=0.15
X213 a_20746_30481# a_19644_30026# VGND.t126 VGND.t96 sky130_fd_pr__nfet_01v8 ad=0.0609 pd=0.71 as=0.0609 ps=0.71 w=0.42 l=1
X214 distortionUnit_2.tgate_1.IN distortionUnit_2.tgate_1.CTRLB distortionUnit_3.IN VPWR.t132 sky130_fd_pr__pfet_01v8 ad=0.29 pd=2.58 as=0.145 ps=1.29 w=1 l=1
X215 VPWR.t41 a_7752_16807# distortionUnit_0.tgate_1.IN VPWR.t40 sky130_fd_pr__pfet_01v8 ad=0.145 pd=1.29 as=0.145 ps=1.29 w=1 l=1
X216 distortionUnit_7.tgate_1.IN ui_in[7].t10 ua[1].t6 VGND.t223 sky130_fd_pr__nfet_01v8 ad=0.145 pd=1.29 as=0.29 ps=2.58 w=1 l=1
X217 a_20842_23723# a_19740_23268# VGND.t444 VGND.t28 sky130_fd_pr__nfet_01v8 ad=0.0609 pd=0.71 as=0.0609 ps=0.71 w=0.42 l=1