* NGSPICE file created from guitflat7.ext - technology: sky130A

.subckt tt_um_guitar_pedal ua[0] ua[1] ui_in[0] VPWR ui_in[1] VGND ui_in[2] ui_in[3] ui_in[4] ui_in[5] ui_in[6] ui_in[7]
X0 VGND.t17 ui_in[4].t0 distortionUnit_5.tgate_1.CTRLB VGND.t16 sky130_fd_pr__nfet_01v8 ad=0.08775 pd=0.92 as=0.08775 ps=0.92 w=0.65 l=0.15
X1 a_20524_36601# a_20524_36601# VPWR.t76 VPWR.t75 sky130_fd_pr__pfet_01v8 ad=0.145 pd=1.29 as=0.145 ps=1.29 w=1 l=1
X2 VGND.t378 VGND.t376 VGND.t378 VGND.t377 sky130_fd_pr__nfet_01v8 ad=0.0609 pd=0.71 as=0 ps=0 w=0.42 l=1
X3 distortionUnit_0.tgate_1.CTRLB ui_in[6].t0 VPWR.t281 distortionUnit_0.sky130_fd_sc_hd__tap_2_0.VPB sky130_fd_pr__pfet_01v8_hvt ad=0.135 pd=1.27 as=0.135 ps=1.27 w=1 l=0.15
X4 VPWR.t276 VPWR.t274 distortionUnit_0.tgate_1.IN VPWR.t275 sky130_fd_pr__pfet_01v8 ad=0.29 pd=2.58 as=0.145 ps=1.29 w=1 l=1
X5 a_7876_23853# VGND.t374 VGND.t375 VGND.t301 sky130_fd_pr__nfet_01v8 ad=0.145 pd=1.29 as=0.29 ps=2.58 w=1 l=1
X6 VGND.t373 VGND.t372 VGND.t373 VGND.t42 sky130_fd_pr__nfet_01v8 ad=0.0609 pd=0.71 as=0 ps=0 w=0.42 l=1
X7 VPWR.t132 a_7752_16807# a_7752_16807# VPWR.t131 sky130_fd_pr__pfet_01v8 ad=0.145 pd=1.29 as=0.145 ps=1.29 w=1 l=1
X8 distortionUnit_4.IN ui_in[3].t0 distortionUnit_5.IN.t5 VPWR.t278 sky130_fd_pr__pfet_01v8 ad=0.29 pd=2.58 as=0.145 ps=1.29 w=1 l=1
X9 ua[1].t3 ui_in[7].t0 distortionUnit_7.IN VPWR.t90 sky130_fd_pr__pfet_01v8 ad=0.145 pd=1.29 as=0.29 ps=2.58 w=1 l=1
X10 distortionUnit_6.IN ui_in[4].t1 distortionUnit_5.tgate_1.IN VGND.t15 sky130_fd_pr__nfet_01v8 ad=0.29 pd=2.58 as=0.145 ps=1.29 w=1 l=1
X11 a_7752_16807# distortionUnit_6.OUT a_8010_16807# VGND.t101 sky130_fd_pr__nfet_01v8 ad=0.145 pd=1.29 as=0.145 ps=1.29 w=1 l=1
X12 distortionUnit_4.tgate_1.IN distortionUnit_4.myOpamp_0.INn a_20746_30481# VGND.t157 sky130_fd_pr__nfet_01v8 ad=0.145 pd=1.29 as=0.145 ps=1.29 w=1 l=1
X13 VPWR.t184 a_20934_16677# distortionUnit_7.tgate_1.IN VPWR.t183 sky130_fd_pr__pfet_01v8 ad=0.145 pd=1.29 as=0.145 ps=1.29 w=1 l=1
X14 ua[1].t7 distortionUnit_7.tgate_1.CTRLB distortionUnit_7.IN VGND.t458 sky130_fd_pr__nfet_01v8 ad=0.29 pd=2.58 as=0.145 ps=1.29 w=1 l=1
X15 VPWR.t228 ui_in[0].t0 bufferUnit_0.tgate_1.CTRLB bufferUnit_0.sky130_fd_sc_hd__tap_2_0.VPB sky130_fd_pr__pfet_01v8_hvt ad=0.135 pd=1.27 as=0.135 ps=1.27 w=1 l=0.15
X16 VGND.t371 VGND.t369 VGND.t371 VGND.t370 sky130_fd_pr__nfet_01v8 ad=0.0609 pd=0.71 as=0 ps=0 w=0.42 l=1
X17 distortionUnit_7.tgate_1.IN distortionUnit_7.myOpamp_0.INn a_21192_16677# VGND.t200 sky130_fd_pr__nfet_01v8 ad=0.145 pd=1.29 as=0.145 ps=1.29 w=1 l=1
X18 a_7752_16807# distortionUnit_6.OUT a_8010_16807# VGND.t99 sky130_fd_pr__nfet_01v8 ad=0.145 pd=1.29 as=0.145 ps=1.29 w=1 l=1
X19 VPWR.t99 ui_in[2].t0 distortionUnit_3.tgate_1.CTRLB distortionUnit_3.sky130_fd_sc_hd__tap_2_0.VPB sky130_fd_pr__pfet_01v8_hvt ad=0.135 pd=1.27 as=0.135 ps=1.27 w=1 l=0.15
X20 bufferUnit_0.tgate_1.IN bufferUnit_0.tgate_1.CTRLB bufferUnit_0.OUT VPWR.t79 sky130_fd_pr__pfet_01v8 ad=0.29 pd=2.58 as=0.145 ps=1.29 w=1 l=1
X21 VPWR.t282 ui_in[6].t1 distortionUnit_0.tgate_1.CTRLB distortionUnit_0.sky130_fd_sc_hd__tap_2_0.VPB sky130_fd_pr__pfet_01v8_hvt ad=0.26 pd=2.52 as=0.135 ps=1.27 w=1 l=0.15
X22 distortionUnit_6.tgate_1.CTRLB ui_in[5].t0 VPWR.t112 distortionUnit_6.sky130_fd_sc_hd__tap_2_0.VPB sky130_fd_pr__pfet_01v8_hvt ad=0.135 pd=1.27 as=0.135 ps=1.27 w=1 l=0.15
X23 VGND.t447 a_19680_36146# a_20782_36601# VGND.t446 sky130_fd_pr__nfet_01v8 ad=0.0609 pd=0.71 as=0.0609 ps=0.71 w=0.42 l=1
X24 distortionUnit_0.tgate_1.IN a_7752_16807# VPWR.t130 VPWR.t129 sky130_fd_pr__pfet_01v8 ad=0.145 pd=1.29 as=0.145 ps=1.29 w=1 l=1
X25 VGND.t450 ui_in[3].t1 distortionUnit_4.tgate_1.CTRLB VGND.t449 sky130_fd_pr__nfet_01v8 ad=0.08775 pd=0.92 as=0.08775 ps=0.92 w=0.65 l=0.15
X26 a_7994_36483# ua[0].t4 a_7736_36483# VGND.t293 sky130_fd_pr__nfet_01v8 ad=0.145 pd=1.29 as=0.145 ps=1.29 w=1 l=1
X27 distortionUnit_4.tgate_1.CTRLB ui_in[3].t2 VGND.t452 VGND.t451 sky130_fd_pr__nfet_01v8 ad=0.08775 pd=0.92 as=0.08775 ps=0.92 w=0.65 l=0.15
X28 a_20782_36601# distortionUnit_2.myOpamp_0.INn distortionUnit_2.tgate_1.IN VGND.t408 sky130_fd_pr__nfet_01v8 ad=0.145 pd=1.29 as=0.145 ps=1.29 w=1 l=1
X29 VPWR.t283 ui_in[6].t2 distortionUnit_0.tgate_1.CTRLB distortionUnit_0.sky130_fd_sc_hd__tap_2_0.VPB sky130_fd_pr__pfet_01v8_hvt ad=0.135 pd=1.27 as=0.135 ps=1.27 w=1 l=0.15
X30 VGND.t162 a_19644_30026# a_20746_30481# VGND.t41 sky130_fd_pr__nfet_01v8 ad=0.0609 pd=0.71 as=0.0609 ps=0.71 w=0.42 l=1
X31 distortionUnit_7.IN ui_in[6].t3 distortionUnit_6.OUT VPWR.t284 sky130_fd_pr__pfet_01v8 ad=0.145 pd=1.29 as=0.29 ps=2.58 w=1 l=1
X32 distortionUnit_7.IN distortionUnit_7.tgate_1.CTRLB ua[1].t6 VGND.t457 sky130_fd_pr__nfet_01v8 ad=0.145 pd=1.29 as=0.29 ps=2.58 w=1 l=1
X33 a_7752_16807# VPWR.t271 VPWR.t273 VPWR.t272 sky130_fd_pr__pfet_01v8 ad=0.145 pd=1.29 as=0.29 ps=2.58 w=1 l=1
X34 distortionUnit_6.tgate_1.IN ui_in[5].t1 distortionUnit_6.OUT VGND.t140 sky130_fd_pr__nfet_01v8 ad=0.145 pd=1.29 as=0.29 ps=2.58 w=1 l=1
X35 distortionUnit_3.tgate_1.CTRLB ui_in[2].t1 VPWR.t100 distortionUnit_3.sky130_fd_sc_hd__tap_2_0.VPB sky130_fd_pr__pfet_01v8_hvt ad=0.135 pd=1.27 as=0.135 ps=1.27 w=1 l=0.15
X36 a_7876_23853# a_7876_23853# VPWR.t32 VPWR.t31 sky130_fd_pr__pfet_01v8 ad=0.145 pd=1.29 as=0.145 ps=1.29 w=1 l=1
X37 VPWR.t270 VPWR.t268 distortionUnit_7.tgate_1.IN VPWR.t269 sky130_fd_pr__pfet_01v8 ad=0.29 pd=2.58 as=0.145 ps=1.29 w=1 l=1
X38 a_8010_16807# distortionUnit_0.myOpamp_0.INn distortionUnit_0.tgate_1.IN VGND.t97 sky130_fd_pr__nfet_01v8 ad=0.145 pd=1.29 as=0.145 ps=1.29 w=1 l=1
X39 a_20746_30481# distortionUnit_4.IN a_20488_30481# VGND.t44 sky130_fd_pr__nfet_01v8 ad=0.145 pd=1.29 as=0.145 ps=1.29 w=1 l=1
X40 VGND.t468 a_6912_30102# a_8014_30557# VGND.t75 sky130_fd_pr__nfet_01v8 ad=0.0609 pd=0.71 as=0.0609 ps=0.71 w=0.42 l=1
X41 VPWR.t311 a_7756_30557# a_7756_30557# VPWR.t310 sky130_fd_pr__pfet_01v8 ad=0.145 pd=1.29 as=0.145 ps=1.29 w=1 l=1
X42 a_7994_36483# a_6892_36028# VGND.t419 VGND.t418 sky130_fd_pr__nfet_01v8 ad=0.0609 pd=0.71 as=0.0609 ps=0.71 w=0.42 l=1
X43 VGND.t399 a_20090_16222# a_21192_16677# VGND.t203 sky130_fd_pr__nfet_01v8 ad=0.0609 pd=0.71 as=0.0609 ps=0.71 w=0.42 l=1
X44 distortionUnit_3.tgate_1.CTRLB ui_in[2].t2 VPWR.t101 distortionUnit_3.sky130_fd_sc_hd__tap_2_0.VPB sky130_fd_pr__pfet_01v8_hvt ad=0.135 pd=1.27 as=0.26 ps=2.52 w=1 l=0.15
X45 VGND.t368 VGND.t367 distortionUnit_3.tgate_1.IN VGND.t288 sky130_fd_pr__nfet_01v8 ad=0.29 pd=2.58 as=0.145 ps=1.29 w=1 l=1
X46 distortionUnit_5.tgate_1.CTRLB ui_in[4].t2 VGND.t14 VGND.t13 sky130_fd_pr__nfet_01v8 ad=0.08775 pd=0.92 as=0.08775 ps=0.92 w=0.65 l=0.15
X47 distortionUnit_6.tgate_1.IN distortionUnit_6.myOpamp_0.INn a_20842_23723# VGND.t285 sky130_fd_pr__nfet_01v8 ad=0.145 pd=1.29 as=0.145 ps=1.29 w=1 l=1
X48 VPWR.t267 VPWR.t265 distortionUnit_2.tgate_1.IN VPWR.t266 sky130_fd_pr__pfet_01v8 ad=0.29 pd=2.58 as=0.145 ps=1.29 w=1 l=1
X49 distortionUnit_0.tgate_1.CTRLB ui_in[6].t4 VPWR.t42 distortionUnit_0.sky130_fd_sc_hd__tap_2_0.VPB sky130_fd_pr__pfet_01v8_hvt ad=0.135 pd=1.27 as=0.135 ps=1.27 w=1 l=0.15
X50 VGND distortionUnit_5.myOpamp_0.INn VGND.t88 sky130_fd_pr__res_xhigh_po_0p69 l=4
X51 a_8134_23853# distortionUnit_5.myOpamp_0.INn distortionUnit_5.tgate_1.IN VGND.t95 sky130_fd_pr__nfet_01v8 ad=0.145 pd=1.29 as=0.145 ps=1.29 w=1 l=1
X52 a_20782_36601# a_19680_36146# VGND.t445 VGND.t407 sky130_fd_pr__nfet_01v8 ad=0.0609 pd=0.71 as=0.0609 ps=0.71 w=0.42 l=1
X53 a_8014_30557# distortionUnit_3.IN a_7756_30557# VGND.t77 sky130_fd_pr__nfet_01v8 ad=0.145 pd=1.29 as=0.145 ps=1.29 w=1 l=1
X54 VPWR a_19680_36146# VGND sky130_fd_pr__res_xhigh_po_0p35 l=26.11
X55 distortionUnit_4.tgate_1.CTRLB ui_in[3].t3 VGND.t454 VGND.t453 sky130_fd_pr__nfet_01v8 ad=0.08775 pd=0.92 as=0.169 ps=1.82 w=0.65 l=0.15
X56 VGND.t366 VGND.t365 VGND.t366 VGND.t332 sky130_fd_pr__nfet_01v8 ad=0.0609 pd=0.71 as=0 ps=0 w=0.42 l=1
X57 VPWR.t277 a_19740_23268# VGND.t448 sky130_fd_pr__res_xhigh_po_0p35 l=0.16
X58 a_7736_36483# ua[0].t5 a_7994_36483# VGND.t413 sky130_fd_pr__nfet_01v8 ad=0.145 pd=1.29 as=0.145 ps=1.29 w=1 l=1
X59 distortionUnit_5.tgate_1.CTRLB ui_in[4].t3 VGND.t12 VGND.t11 sky130_fd_pr__nfet_01v8 ad=0.08775 pd=0.92 as=0.169 ps=1.82 w=0.65 l=0.15
X60 distortionUnit_6.OUT distortionUnit_0.tgate_1.CTRLB distortionUnit_7.IN VGND.t393 sky130_fd_pr__nfet_01v8 ad=0.145 pd=1.29 as=0.29 ps=2.58 w=1 l=1
X61 bufferUnit_0.OUT ui_in[1].t0 distortionUnit_3.IN VPWR.t287 sky130_fd_pr__pfet_01v8 ad=0.29 pd=2.58 as=0.145 ps=1.29 w=1 l=1
X62 a_6908_16352# a_6908_16352# VGND.t108 VGND.t107 sky130_fd_pr__nfet_01v8 ad=0.0609 pd=0.71 as=0.0609 ps=0.71 w=0.42 l=1
X63 VGND.t173 ui_in[0].t1 bufferUnit_0.tgate_1.CTRLB VGND.t172 sky130_fd_pr__nfet_01v8 ad=0.08775 pd=0.92 as=0.08775 ps=0.92 w=0.65 l=0.15
X64 distortionUnit_7.tgate_1.IN a_20934_16677# VPWR.t182 VPWR.t181 sky130_fd_pr__pfet_01v8 ad=0.145 pd=1.29 as=0.145 ps=1.29 w=1 l=1
X65 VGND.t460 ui_in[1].t1 distortionUnit_2.tgate_1.CTRLB VGND.t459 sky130_fd_pr__nfet_01v8 ad=0.08775 pd=0.92 as=0.08775 ps=0.92 w=0.65 l=0.15
X66 distortionUnit_4.tgate_1.IN a_20488_30481# VPWR.t156 VPWR.t155 sky130_fd_pr__pfet_01v8 ad=0.145 pd=1.29 as=0.145 ps=1.29 w=1 l=1
X67 distortionUnit_6.tgate_1.IN a_20584_23723# VPWR.t205 VPWR.t204 sky130_fd_pr__pfet_01v8 ad=0.145 pd=1.29 as=0.145 ps=1.29 w=1 l=1
X68 distortionUnit_2.tgate_1.CTRLB ui_in[1].t2 VGND.t462 VGND.t461 sky130_fd_pr__nfet_01v8 ad=0.08775 pd=0.92 as=0.08775 ps=0.92 w=0.65 l=0.15
X69 a_21192_16677# a_20090_16222# VGND.t398 VGND.t199 sky130_fd_pr__nfet_01v8 ad=0.0609 pd=0.71 as=0.0609 ps=0.71 w=0.42 l=1
X70 distortionUnit_7.tgate_1.IN a_20934_16677# VPWR.t180 VPWR.t179 sky130_fd_pr__pfet_01v8 ad=0.145 pd=1.29 as=0.145 ps=1.29 w=1 l=1
X71 VPWR.t30 a_7876_23853# distortionUnit_5.tgate_1.IN VPWR.t29 sky130_fd_pr__pfet_01v8 ad=0.145 pd=1.29 as=0.145 ps=1.29 w=1 l=1
X72 distortionUnit_7.tgate_1.IN distortionUnit_7.myOpamp_0.INn VGND.t28 sky130_fd_pr__res_xhigh_po_0p69 l=10
X73 distortionUnit_3.tgate_1.IN distortionUnit_3.myOpamp_0.INn a_8014_30557# VGND.t276 sky130_fd_pr__nfet_01v8 ad=0.145 pd=1.29 as=0.145 ps=1.29 w=1 l=1
X74 bufferUnit_0.OUT ui_in[0].t2 bufferUnit_0.tgate_1.IN VGND.t174 sky130_fd_pr__nfet_01v8 ad=0.29 pd=2.58 as=0.145 ps=1.29 w=1 l=1
X75 a_20842_23723# distortionUnit_6.IN a_20584_23723# VGND.t273 sky130_fd_pr__nfet_01v8 ad=0.145 pd=1.29 as=0.145 ps=1.29 w=1 l=1
X76 a_8014_30557# a_6912_30102# VGND.t467 VGND.t379 sky130_fd_pr__nfet_01v8 ad=0.0609 pd=0.71 as=0.0609 ps=0.71 w=0.42 l=1
X77 VGND.t364 VGND.t362 VGND.t364 VGND.t363 sky130_fd_pr__nfet_01v8 ad=0.0609 pd=0.71 as=0 ps=0 w=0.42 l=1
X78 distortionUnit_5.tgate_1.IN distortionUnit_5.myOpamp_0.INn a_8134_23853# VGND.t94 sky130_fd_pr__nfet_01v8 ad=0.145 pd=1.29 as=0.145 ps=1.29 w=1 l=1
X79 a_20842_23723# distortionUnit_6.IN a_20584_23723# VGND.t186 sky130_fd_pr__nfet_01v8 ad=0.145 pd=1.29 as=0.145 ps=1.29 w=1 l=1
X80 VGND.t361 VGND.t360 VGND.t361 VGND.t36 sky130_fd_pr__nfet_01v8 ad=0.0609 pd=0.71 as=0 ps=0 w=0.42 l=1
X81 VGND.t359 VGND.t357 VGND.t359 VGND.t358 sky130_fd_pr__nfet_01v8 ad=0.0609 pd=0.71 as=0 ps=0 w=0.42 l=1
X82 VGND.t10 ui_in[4].t4 distortionUnit_5.tgate_1.CTRLB VGND.t9 sky130_fd_pr__nfet_01v8 ad=0.08775 pd=0.92 as=0.08775 ps=0.92 w=0.65 l=0.15
X83 distortionUnit_2.tgate_1.IN distortionUnit_2.myOpamp_0.INn VGND.t39 sky130_fd_pr__res_xhigh_po_0p69 l=10
X84 distortionUnit_6.tgate_1.CTRLB ui_in[5].t2 VGND.t142 VGND.t141 sky130_fd_pr__nfet_01v8 ad=0.08775 pd=0.92 as=0.08775 ps=0.92 w=0.65 l=0.15
X85 distortionUnit_5.tgate_1.IN distortionUnit_5.myOpamp_0.INn a_8134_23853# VGND.t93 sky130_fd_pr__nfet_01v8 ad=0.145 pd=1.29 as=0.145 ps=1.29 w=1 l=1
X86 distortionUnit_3.IN ui_in[1].t3 bufferUnit_0.OUT VPWR.t46 sky130_fd_pr__pfet_01v8 ad=0.145 pd=1.29 as=0.29 ps=2.58 w=1 l=1
X87 bufferUnit_0.tgate_1.CTRLB ui_in[0].t3 VGND.t176 VGND.t175 sky130_fd_pr__nfet_01v8 ad=0.08775 pd=0.92 as=0.08775 ps=0.92 w=0.65 l=0.15
X88 a_7756_30557# VGND.t355 VGND.t356 VGND.t267 sky130_fd_pr__nfet_01v8 ad=0.145 pd=1.29 as=0.29 ps=2.58 w=1 l=1
X89 distortionUnit_6.tgate_1.IN distortionUnit_6.tgate_1.CTRLB distortionUnit_6.OUT VPWR.t56 sky130_fd_pr__pfet_01v8 ad=0.29 pd=2.58 as=0.145 ps=1.29 w=1 l=1
X90 VGND.t354 VGND.t352 VGND.t353 VGND.t323 sky130_fd_pr__nfet_01v8 ad=0.1218 pd=1.42 as=0 ps=0 w=0.42 l=1
X91 bufferUnit_0.tgate_1.CTRLB ui_in[0].t4 VGND.t178 VGND.t177 sky130_fd_pr__nfet_01v8 ad=0.08775 pd=0.92 as=0.169 ps=1.82 w=0.65 l=0.15
X92 distortionUnit_4.tgate_1.IN ui_in[3].t4 distortionUnit_5.IN.t7 VGND.t163 sky130_fd_pr__nfet_01v8 ad=0.145 pd=1.29 as=0.29 ps=2.58 w=1 l=1
X93 a_20488_30481# distortionUnit_4.IN a_20746_30481# VGND.t43 sky130_fd_pr__nfet_01v8 ad=0.145 pd=1.29 as=0.145 ps=1.29 w=1 l=1
X94 VPWR.t178 a_20934_16677# a_20934_16677# VPWR.t177 sky130_fd_pr__pfet_01v8 ad=0.145 pd=1.29 as=0.145 ps=1.29 w=1 l=1
X95 distortionUnit_7.tgate_1.CTRLB ui_in[7].t1 VPWR.t91 distortionUnit_7.sky130_fd_sc_hd__tap_2_0.VPB sky130_fd_pr__pfet_01v8_hvt ad=0.135 pd=1.27 as=0.26 ps=2.52 w=1 l=0.15
X96 VPWR.t154 a_20488_30481# a_20488_30481# VPWR.t153 sky130_fd_pr__pfet_01v8 ad=0.145 pd=1.29 as=0.145 ps=1.29 w=1 l=1
X97 VGND.t351 VGND.t350 VGND.t351 VGND.t282 sky130_fd_pr__nfet_01v8 ad=0.0609 pd=0.71 as=0 ps=0 w=0.42 l=1
X98 a_7756_30557# a_7756_30557# VPWR.t309 VPWR.t308 sky130_fd_pr__pfet_01v8 ad=0.145 pd=1.29 as=0.145 ps=1.29 w=1 l=1
X99 VPWR.t203 a_20584_23723# a_20584_23723# VPWR.t202 sky130_fd_pr__pfet_01v8 ad=0.145 pd=1.29 as=0.145 ps=1.29 w=1 l=1
X100 a_20584_23723# distortionUnit_6.IN a_20842_23723# VGND.t184 sky130_fd_pr__nfet_01v8 ad=0.145 pd=1.29 as=0.145 ps=1.29 w=1 l=1
X101 distortionUnit_4.tgate_1.IN distortionUnit_4.myOpamp_0.INn VGND.t153 sky130_fd_pr__res_xhigh_po_0p69 l=10
X102 bufferUnit_0.OUT bufferUnit_0.tgate_1.CTRLB bufferUnit_0.tgate_1.IN VPWR.t78 sky130_fd_pr__pfet_01v8 ad=0.145 pd=1.29 as=0.29 ps=2.58 w=1 l=1
X103 a_20934_16677# distortionUnit_7.IN a_21192_16677# VGND.t205 sky130_fd_pr__nfet_01v8 ad=0.145 pd=1.29 as=0.145 ps=1.29 w=1 l=1
X104 a_20584_23723# VGND.t348 VGND.t349 VGND.t257 sky130_fd_pr__nfet_01v8 ad=0.145 pd=1.29 as=0.29 ps=2.58 w=1 l=1
X105 distortionUnit_2.tgate_1.CTRLB ui_in[1].t4 VPWR.t47 distortionUnit_2.sky130_fd_sc_hd__tap_2_0.VPB sky130_fd_pr__pfet_01v8_hvt ad=0.135 pd=1.27 as=0.135 ps=1.27 w=1 l=0.15
X106 distortionUnit_4.tgate_1.CTRLB ui_in[3].t5 VGND.t165 VGND.t164 sky130_fd_pr__nfet_01v8 ad=0.08775 pd=0.92 as=0.08775 ps=0.92 w=0.65 l=0.15
X107 distortionUnit_0.tgate_1.IN a_7752_16807# VPWR.t128 VPWR.t127 sky130_fd_pr__pfet_01v8 ad=0.145 pd=1.29 as=0.145 ps=1.29 w=1 l=1
X108 VGND.t144 ui_in[5].t3 distortionUnit_6.tgate_1.CTRLB VGND.t143 sky130_fd_pr__nfet_01v8 ad=0.08775 pd=0.92 as=0.08775 ps=0.92 w=0.65 l=0.15
X109 VPWR.t43 ui_in[6].t5 distortionUnit_0.tgate_1.CTRLB distortionUnit_0.sky130_fd_sc_hd__tap_2_0.VPB sky130_fd_pr__pfet_01v8_hvt ad=0.135 pd=1.27 as=0.135 ps=1.27 w=1 l=0.15
X110 distortionUnit_7.tgate_1.CTRLB ui_in[7].t2 VPWR.t92 distortionUnit_7.sky130_fd_sc_hd__tap_2_0.VPB sky130_fd_pr__pfet_01v8_hvt ad=0.135 pd=1.27 as=0.135 ps=1.27 w=1 l=0.15
X111 VGND.t121 ui_in[0].t5 bufferUnit_0.tgate_1.CTRLB VGND.t120 sky130_fd_pr__nfet_01v8 ad=0.08775 pd=0.92 as=0.08775 ps=0.92 w=0.65 l=0.15
X112 VPWR.t93 ui_in[7].t3 distortionUnit_7.tgate_1.CTRLB distortionUnit_7.sky130_fd_sc_hd__tap_2_0.VPB sky130_fd_pr__pfet_01v8_hvt ad=0.135 pd=1.27 as=0.135 ps=1.27 w=1 l=0.15
X113 distortionUnit_0.tgate_1.IN distortionUnit_0.tgate_1.CTRLB distortionUnit_7.IN VPWR.t164 sky130_fd_pr__pfet_01v8 ad=0.29 pd=2.58 as=0.145 ps=1.29 w=1 l=1
X114 VGND.t347 VGND.t345 VGND.t347 VGND.t346 sky130_fd_pr__nfet_01v8 ad=0.0609 pd=0.71 as=0 ps=0 w=0.42 l=1
X115 VGND.t344 VGND.t343 VGND.t344 VGND.t198 sky130_fd_pr__nfet_01v8 ad=0.0609 pd=0.71 as=0 ps=0 w=0.42 l=1
X116 a_20746_30481# distortionUnit_4.myOpamp_0.INn distortionUnit_4.tgate_1.IN VGND.t154 sky130_fd_pr__nfet_01v8 ad=0.145 pd=1.29 as=0.145 ps=1.29 w=1 l=1
X117 distortionUnit_2.tgate_1.IN distortionUnit_2.myOpamp_0.INn a_20782_36601# VGND.t377 sky130_fd_pr__nfet_01v8 ad=0.145 pd=1.29 as=0.145 ps=1.29 w=1 l=1
X118 VPWR.t307 a_7756_30557# distortionUnit_3.tgate_1.IN VPWR.t306 sky130_fd_pr__pfet_01v8 ad=0.145 pd=1.29 as=0.145 ps=1.29 w=1 l=1
X119 VGND.t397 a_20090_16222# a_20090_16222# VGND.t197 sky130_fd_pr__nfet_01v8 ad=0.0609 pd=0.71 as=0.0609 ps=0.71 w=0.42 l=1
X120 a_7736_36483# a_7736_36483# VPWR.t227 VPWR.t226 sky130_fd_pr__pfet_01v8 ad=0.145 pd=1.29 as=0.145 ps=1.29 w=1 l=1
X121 VPWR.t44 ui_in[6].t6 distortionUnit_0.tgate_1.CTRLB distortionUnit_0.sky130_fd_sc_hd__tap_2_0.VPB sky130_fd_pr__pfet_01v8_hvt ad=0.135 pd=1.27 as=0.135 ps=1.27 w=1 l=0.15
X122 distortionUnit_3.tgate_1.CTRLB ui_in[2].t3 VPWR.t102 distortionUnit_3.sky130_fd_sc_hd__tap_2_0.VPB sky130_fd_pr__pfet_01v8_hvt ad=0.135 pd=1.27 as=0.135 ps=1.27 w=1 l=0.15
X123 a_8014_30557# distortionUnit_3.myOpamp_0.INn distortionUnit_3.tgate_1.IN VGND.t381 sky130_fd_pr__nfet_01v8 ad=0.145 pd=1.29 as=0.145 ps=1.29 w=1 l=1
X124 distortionUnit_2.tgate_1.CTRLB ui_in[1].t5 VPWR.t48 distortionUnit_2.sky130_fd_sc_hd__tap_2_0.VPB sky130_fd_pr__pfet_01v8_hvt ad=0.135 pd=1.27 as=0.26 ps=2.52 w=1 l=0.15
X125 bufferUnit_0.tgate_1.IN bufferUnit_0.tgate_1.IN a_7994_36483# VGND.t411 sky130_fd_pr__nfet_01v8 ad=0.145 pd=1.29 as=0.145 ps=1.29 w=1 l=1
X126 distortionUnit_2.tgate_1.IN a_20524_36601# VPWR.t74 VPWR.t73 sky130_fd_pr__pfet_01v8 ad=0.145 pd=1.29 as=0.145 ps=1.29 w=1 l=1
X127 VGND.t167 ui_in[3].t6 distortionUnit_4.tgate_1.CTRLB VGND.t166 sky130_fd_pr__nfet_01v8 ad=0.08775 pd=0.92 as=0.08775 ps=0.92 w=0.65 l=0.15
X128 VPWR.t108 a_19644_30026# VGND.t195 sky130_fd_pr__res_xhigh_po_0p35 l=0.16
X129 distortionUnit_6.OUT ui_in[5].t4 distortionUnit_6.tgate_1.IN VGND.t52 sky130_fd_pr__nfet_01v8 ad=0.29 pd=2.58 as=0.145 ps=1.29 w=1 l=1
X130 distortionUnit_2.tgate_1.IN a_20524_36601# VPWR.t70 VPWR.t69 sky130_fd_pr__pfet_01v8 ad=0.145 pd=1.29 as=0.145 ps=1.29 w=1 l=1
X131 a_20488_30481# a_20488_30481# VPWR.t152 VPWR.t151 sky130_fd_pr__pfet_01v8 ad=0.145 pd=1.29 as=0.145 ps=1.29 w=1 l=1
X132 a_20090_16222# a_20090_16222# VGND.t396 VGND.t202 sky130_fd_pr__nfet_01v8 ad=0.0609 pd=0.71 as=0.0609 ps=0.71 w=0.42 l=1
X133 a_19644_30026# a_19644_30026# VGND.t161 VGND.t40 sky130_fd_pr__nfet_01v8 ad=0.0609 pd=0.71 as=0.0609 ps=0.71 w=0.42 l=1
X134 a_20524_36601# bufferUnit_0.OUT a_20782_36601# VGND.t446 sky130_fd_pr__nfet_01v8 ad=0.145 pd=1.29 as=0.145 ps=1.29 w=1 l=1
X135 distortionUnit_3.tgate_1.CTRLB ui_in[2].t4 VPWR.t80 distortionUnit_3.sky130_fd_sc_hd__tap_2_0.VPB sky130_fd_pr__pfet_01v8_hvt ad=0.135 pd=1.27 as=0.135 ps=1.27 w=1 l=0.15
X136 VPWR.t81 ui_in[2].t5 distortionUnit_3.tgate_1.CTRLB distortionUnit_3.sky130_fd_sc_hd__tap_2_0.VPB sky130_fd_pr__pfet_01v8_hvt ad=0.26 pd=2.52 as=0.135 ps=1.27 w=1 l=0.15
X137 VGND.t342 VGND.t341 distortionUnit_6.tgate_1.IN VGND.t245 sky130_fd_pr__nfet_01v8 ad=0.29 pd=2.58 as=0.145 ps=1.29 w=1 l=1
X138 VGND.t340 VGND.t339 distortionUnit_5.tgate_1.IN VGND.t242 sky130_fd_pr__nfet_01v8 ad=0.29 pd=2.58 as=0.145 ps=1.29 w=1 l=1
X139 distortionUnit_7.tgate_1.IN distortionUnit_7.tgate_1.CTRLB ua[1].t5 VPWR.t286 sky130_fd_pr__pfet_01v8 ad=0.29 pd=2.58 as=0.145 ps=1.29 w=1 l=1
X140 VGND.t169 ui_in[3].t7 distortionUnit_4.tgate_1.CTRLB VGND.t168 sky130_fd_pr__nfet_01v8 ad=0.169 pd=1.82 as=0.08775 ps=0.92 w=0.65 l=0.15
X141 distortionUnit_3.tgate_1.IN distortionUnit_3.myOpamp_0.INn a_8014_30557# VGND.t380 sky130_fd_pr__nfet_01v8 ad=0.145 pd=1.29 as=0.145 ps=1.29 w=1 l=1
X142 VPWR.t225 a_7736_36483# bufferUnit_0.tgate_1.IN VPWR.t224 sky130_fd_pr__pfet_01v8 ad=0.145 pd=1.29 as=0.145 ps=1.29 w=1 l=1
X143 bufferUnit_0.tgate_1.IN ui_in[0].t6 bufferUnit_0.OUT VGND.t122 sky130_fd_pr__nfet_01v8 ad=0.145 pd=1.29 as=0.29 ps=2.58 w=1 l=1
X144 a_20842_23723# distortionUnit_6.myOpamp_0.INn distortionUnit_6.tgate_1.IN VGND.t182 sky130_fd_pr__nfet_01v8 ad=0.145 pd=1.29 as=0.145 ps=1.29 w=1 l=1
X145 VPWR.t28 a_7876_23853# a_7876_23853# VPWR.t27 sky130_fd_pr__pfet_01v8 ad=0.145 pd=1.29 as=0.145 ps=1.29 w=1 l=1
X146 distortionUnit_0.tgate_1.CTRLB ui_in[6].t7 VPWR.t45 distortionUnit_0.sky130_fd_sc_hd__tap_2_0.VPB sky130_fd_pr__pfet_01v8_hvt ad=0.135 pd=1.27 as=0.135 ps=1.27 w=1 l=0.15
X147 VGND.t338 VGND.t337 VGND.t338 VGND.t74 sky130_fd_pr__nfet_01v8 ad=0.0609 pd=0.71 as=0 ps=0 w=0.42 l=1
X148 distortionUnit_3.tgate_1.IN distortionUnit_3.myOpamp_0.INn VGND.t179 sky130_fd_pr__res_xhigh_po_0p69 l=10
X149 distortionUnit_6.tgate_1.CTRLB ui_in[5].t5 VGND.t54 VGND.t53 sky130_fd_pr__nfet_01v8 ad=0.08775 pd=0.92 as=0.08775 ps=0.92 w=0.65 l=0.15
X150 VPWR.t176 a_20934_16677# a_20934_16677# VPWR.t175 sky130_fd_pr__pfet_01v8 ad=0.145 pd=1.29 as=0.145 ps=1.29 w=1 l=1
X151 distortionUnit_3.tgate_1.IN distortionUnit_3.myOpamp_0.INn a_8014_30557# VGND.t239 sky130_fd_pr__nfet_01v8 ad=0.145 pd=1.29 as=0.145 ps=1.29 w=1 l=1
X152 VGND.t106 a_6908_16352# a_6908_16352# VGND.t105 sky130_fd_pr__nfet_01v8 ad=0.0609 pd=0.71 as=0.0609 ps=0.71 w=0.42 l=1
X153 VPWR.t72 a_20524_36601# a_20524_36601# VPWR.t71 sky130_fd_pr__pfet_01v8 ad=0.145 pd=1.29 as=0.145 ps=1.29 w=1 l=1
X154 a_8134_23853# distortionUnit_5.IN.t12 a_7876_23853# VGND.t236 sky130_fd_pr__nfet_01v8 ad=0.145 pd=1.29 as=0.145 ps=1.29 w=1 l=1
X155 distortionUnit_7.IN ui_in[6].t8 distortionUnit_0.tgate_1.IN VGND.t65 sky130_fd_pr__nfet_01v8 ad=0.29 pd=2.58 as=0.145 ps=1.29 w=1 l=1
X156 VPWR.t68 a_20524_36601# a_20524_36601# VPWR.t67 sky130_fd_pr__pfet_01v8 ad=0.145 pd=1.29 as=0.145 ps=1.29 w=1 l=1
X157 bufferUnit_0.tgate_1.CTRLB ui_in[0].t7 VGND.t124 VGND.t123 sky130_fd_pr__nfet_01v8 ad=0.08775 pd=0.92 as=0.08775 ps=0.92 w=0.65 l=0.15
X158 distortionUnit_0.tgate_1.IN distortionUnit_0.myOpamp_0.INn VGND.t23 sky130_fd_pr__res_xhigh_po_0p69 l=10
X159 VPWR.t150 a_20488_30481# distortionUnit_4.tgate_1.IN VPWR.t149 sky130_fd_pr__pfet_01v8 ad=0.145 pd=1.29 as=0.145 ps=1.29 w=1 l=1
X160 a_20782_36601# distortionUnit_2.myOpamp_0.INn distortionUnit_2.tgate_1.IN VGND.t407 sky130_fd_pr__nfet_01v8 ad=0.145 pd=1.29 as=0.145 ps=1.29 w=1 l=1
X161 VGND.t336 VGND.t334 VGND.t335 VGND.t248 sky130_fd_pr__nfet_01v8 ad=0.1218 pd=1.42 as=0 ps=0 w=0.42 l=1
X162 distortionUnit_4.tgate_1.IN distortionUnit_4.tgate_1.CTRLB distortionUnit_5.IN.t11 VPWR.t207 sky130_fd_pr__pfet_01v8 ad=0.29 pd=2.58 as=0.145 ps=1.29 w=1 l=1
X163 ua[1].t4 distortionUnit_7.tgate_1.CTRLB distortionUnit_7.tgate_1.IN VPWR.t285 sky130_fd_pr__pfet_01v8 ad=0.145 pd=1.29 as=0.29 ps=2.58 w=1 l=1
X164 VGND.t333 VGND.t331 distortionUnit_0.tgate_1.IN VGND.t332 sky130_fd_pr__nfet_01v8 ad=0.29 pd=2.58 as=0.145 ps=1.29 w=1 l=1
X165 VGND.t136 ui_in[2].t6 distortionUnit_3.tgate_1.CTRLB VGND.t135 sky130_fd_pr__nfet_01v8 ad=0.08775 pd=0.92 as=0.08775 ps=0.92 w=0.65 l=0.15
X166 VGND.t330 VGND.t328 VGND.t330 VGND.t329 sky130_fd_pr__nfet_01v8 ad=0.0609 pd=0.71 as=0 ps=0 w=0.42 l=1
X167 a_8010_16807# distortionUnit_6.OUT a_7752_16807# VGND.t107 sky130_fd_pr__nfet_01v8 ad=0.145 pd=1.29 as=0.145 ps=1.29 w=1 l=1
X168 a_20934_16677# VPWR.t262 VPWR.t264 VPWR.t263 sky130_fd_pr__pfet_01v8 ad=0.145 pd=1.29 as=0.29 ps=2.58 w=1 l=1
X169 distortionUnit_6.tgate_1.CTRLB ui_in[5].t6 VGND.t56 VGND.t55 sky130_fd_pr__nfet_01v8 ad=0.08775 pd=0.92 as=0.169 ps=1.82 w=0.65 l=0.15
X170 VGND.t466 a_6912_30102# a_8014_30557# VGND.t73 sky130_fd_pr__nfet_01v8 ad=0.0609 pd=0.71 as=0.0609 ps=0.71 w=0.42 l=1
X171 VPWR.t51 a_7032_23398# VGND.t72 sky130_fd_pr__res_xhigh_po_0p35 l=0.16
X172 VGND.t327 VGND.t325 VGND.t327 VGND.t326 sky130_fd_pr__nfet_01v8 ad=0.0609 pd=0.71 as=0 ps=0 w=0.42 l=1
X173 bufferUnit_0.tgate_1.CTRLB ui_in[0].t8 VGND.t126 VGND.t125 sky130_fd_pr__nfet_01v8 ad=0.08775 pd=0.92 as=0.08775 ps=0.92 w=0.65 l=0.15
X174 VGND.t58 ui_in[5].t7 distortionUnit_6.tgate_1.CTRLB VGND.t57 sky130_fd_pr__nfet_01v8 ad=0.08775 pd=0.92 as=0.08775 ps=0.92 w=0.65 l=0.15
X175 VGND.t69 ui_in[0].t9 bufferUnit_0.tgate_1.CTRLB VGND.t68 sky130_fd_pr__nfet_01v8 ad=0.169 pd=1.82 as=0.08775 ps=0.92 w=0.65 l=0.15
X176 distortionUnit_7.tgate_1.CTRLB ui_in[7].t4 VPWR.t94 distortionUnit_7.sky130_fd_sc_hd__tap_2_0.VPB sky130_fd_pr__pfet_01v8_hvt ad=0.135 pd=1.27 as=0.135 ps=1.27 w=1 l=0.15
X177 a_20524_36601# VPWR.t259 VPWR.t261 VPWR.t260 sky130_fd_pr__pfet_01v8 ad=0.145 pd=1.29 as=0.29 ps=2.58 w=1 l=1
X178 VPWR.t82 ui_in[7].t5 distortionUnit_7.tgate_1.CTRLB distortionUnit_7.sky130_fd_sc_hd__tap_2_0.VPB sky130_fd_pr__pfet_01v8_hvt ad=0.26 pd=2.52 as=0.135 ps=1.27 w=1 l=0.15
X179 VPWR.t107 a_19680_36146# VGND.t194 sky130_fd_pr__res_xhigh_po_0p35 l=0.16
X180 distortionUnit_7.IN distortionUnit_0.tgate_1.CTRLB distortionUnit_0.tgate_1.IN VPWR.t163 sky130_fd_pr__pfet_01v8 ad=0.145 pd=1.29 as=0.29 ps=2.58 w=1 l=1
X181 distortionUnit_0.tgate_1.IN distortionUnit_0.myOpamp_0.INn a_8010_16807# VGND.t358 sky130_fd_pr__nfet_01v8 ad=0.145 pd=1.29 as=0.145 ps=1.29 w=1 l=1
X182 distortionUnit_5.IN.t9 distortionUnit_4.tgate_1.CTRLB distortionUnit_4.IN VGND.t421 sky130_fd_pr__nfet_01v8 ad=0.29 pd=2.58 as=0.145 ps=1.29 w=1 l=1
X183 distortionUnit_3.tgate_1.CTRLB ui_in[2].t7 VGND.t138 VGND.t137 sky130_fd_pr__nfet_01v8 ad=0.08775 pd=0.92 as=0.08775 ps=0.92 w=0.65 l=0.15
X184 VPWR.t126 a_7752_16807# a_7752_16807# VPWR.t125 sky130_fd_pr__pfet_01v8 ad=0.145 pd=1.29 as=0.145 ps=1.29 w=1 l=1
X185 VPWR.t83 ui_in[7].t6 distortionUnit_7.tgate_1.CTRLB distortionUnit_7.sky130_fd_sc_hd__tap_2_0.VPB sky130_fd_pr__pfet_01v8_hvt ad=0.135 pd=1.27 as=0.135 ps=1.27 w=1 l=0.15
X186 distortionUnit_6.tgate_1.IN distortionUnit_6.myOpamp_0.INn VGND.t438 sky130_fd_pr__res_xhigh_po_0p69 l=10
X187 VGND.t191 a_19740_23268# a_20842_23723# VGND.t190 sky130_fd_pr__nfet_01v8 ad=0.0609 pd=0.71 as=0.0609 ps=0.71 w=0.42 l=1
X188 VPWR.t96 ui_in[3].t8 distortionUnit_4.tgate_1.CTRLB distortionUnit_4.sky130_fd_sc_hd__tap_2_0.VPB sky130_fd_pr__pfet_01v8_hvt ad=0.135 pd=1.27 as=0.135 ps=1.27 w=1 l=0.15
X189 distortionUnit_4.tgate_1.IN distortionUnit_4.myOpamp_0.INn a_20746_30481# VGND.t227 sky130_fd_pr__nfet_01v8 ad=0.145 pd=1.29 as=0.145 ps=1.29 w=1 l=1
X190 ua[1].t1 ui_in[7].t7 distortionUnit_7.tgate_1.IN VGND.t139 sky130_fd_pr__nfet_01v8 ad=0.29 pd=2.58 as=0.145 ps=1.29 w=1 l=1
X191 a_21192_16677# distortionUnit_7.IN a_20934_16677# VGND.t204 sky130_fd_pr__nfet_01v8 ad=0.145 pd=1.29 as=0.145 ps=1.29 w=1 l=1
X192 distortionUnit_3.tgate_1.CTRLB ui_in[2].t8 VGND.t25 VGND.t24 sky130_fd_pr__nfet_01v8 ad=0.08775 pd=0.92 as=0.169 ps=1.82 w=0.65 l=0.15
X193 VGND.t417 a_6892_36028# a_7994_36483# VGND.t96 sky130_fd_pr__nfet_01v8 ad=0.0609 pd=0.71 as=0.0609 ps=0.71 w=0.42 l=1
X194 distortionUnit_5.tgate_1.IN distortionUnit_5.myOpamp_0.INn VGND.t192 sky130_fd_pr__res_xhigh_po_0p69 l=10
X195 VPWR.t305 a_7756_30557# a_7756_30557# VPWR.t304 sky130_fd_pr__pfet_01v8 ad=0.145 pd=1.29 as=0.145 ps=1.29 w=1 l=1
X196 a_7752_16807# VGND.t322 VGND.t324 VGND.t323 sky130_fd_pr__nfet_01v8 ad=0.145 pd=1.29 as=0.29 ps=2.58 w=1 l=1
X197 VGND.t314 VGND.t313 bufferUnit_0.tgate_1.IN VGND.t222 sky130_fd_pr__nfet_01v8 ad=0.29 pd=2.58 as=0.145 ps=1.29 w=1 l=1
X198 distortionUnit_2.tgate_1.CTRLB ui_in[1].t6 VPWR.t109 distortionUnit_2.sky130_fd_sc_hd__tap_2_0.VPB sky130_fd_pr__pfet_01v8_hvt ad=0.135 pd=1.27 as=0.135 ps=1.27 w=1 l=0.15
X199 distortionUnit_0.tgate_1.CTRLB ui_in[6].t9 VGND.t67 VGND.t66 sky130_fd_pr__nfet_01v8 ad=0.08775 pd=0.92 as=0.169 ps=1.82 w=0.65 l=0.15
X200 VGND.t321 VGND.t320 VGND.t321 VGND.t201 sky130_fd_pr__nfet_01v8 ad=0.0609 pd=0.71 as=0 ps=0 w=0.42 l=1
X201 VPWR.t110 ui_in[1].t7 distortionUnit_2.tgate_1.CTRLB distortionUnit_2.sky130_fd_sc_hd__tap_2_0.VPB sky130_fd_pr__pfet_01v8_hvt ad=0.135 pd=1.27 as=0.135 ps=1.27 w=1 l=0.15
X202 a_7876_23853# distortionUnit_5.IN.t13 a_8134_23853# VGND.t146 sky130_fd_pr__nfet_01v8 ad=0.145 pd=1.29 as=0.145 ps=1.29 w=1 l=1
X203 VGND.t444 a_19680_36146# a_20782_36601# VGND.t443 sky130_fd_pr__nfet_01v8 ad=0.0609 pd=0.71 as=0.0609 ps=0.71 w=0.42 l=1
X204 VGND.t319 VGND.t318 VGND.t319 VGND.t233 sky130_fd_pr__nfet_01v8 ad=0.0609 pd=0.71 as=0 ps=0 w=0.42 l=1
X205 a_7994_36483# ua[0].t6 a_7736_36483# VGND.t409 sky130_fd_pr__nfet_01v8 ad=0.145 pd=1.29 as=0.145 ps=1.29 w=1 l=1
X206 VPWR.t84 ui_in[7].t8 distortionUnit_7.tgate_1.CTRLB distortionUnit_7.sky130_fd_sc_hd__tap_2_0.VPB sky130_fd_pr__pfet_01v8_hvt ad=0.135 pd=1.27 as=0.135 ps=1.27 w=1 l=0.15
X207 distortionUnit_7.tgate_1.CTRLB ui_in[7].t9 VPWR.t85 distortionUnit_7.sky130_fd_sc_hd__tap_2_0.VPB sky130_fd_pr__pfet_01v8_hvt ad=0.135 pd=1.27 as=0.135 ps=1.27 w=1 l=0.15
X208 a_20746_30481# a_19644_30026# VGND.t160 VGND.t159 sky130_fd_pr__nfet_01v8 ad=0.0609 pd=0.71 as=0.0609 ps=0.71 w=0.42 l=1
X209 a_7994_36483# ua[0].t7 a_7736_36483# VGND.t219 sky130_fd_pr__nfet_01v8 ad=0.145 pd=1.29 as=0.145 ps=1.29 w=1 l=1
X210 distortionUnit_2.tgate_1.IN distortionUnit_2.tgate_1.CTRLB distortionUnit_3.IN VPWR.t98 sky130_fd_pr__pfet_01v8 ad=0.29 pd=2.58 as=0.145 ps=1.29 w=1 l=1
X211 VPWR.t124 a_7752_16807# distortionUnit_0.tgate_1.IN VPWR.t123 sky130_fd_pr__pfet_01v8 ad=0.145 pd=1.29 as=0.145 ps=1.29 w=1 l=1
X212 distortionUnit_7.tgate_1.IN ui_in[7].t10 ua[1].t0 VGND.t109 sky130_fd_pr__nfet_01v8 ad=0.145 pd=1.29 as=0.29 ps=2.58 w=1 l=1
X213 a_20842_23723# a_19740_23268# VGND.t189 VGND.t188 sky130_fd_pr__nfet_01v8 ad=0.0609 pd=0.71 as=0.0609 ps=0.71 w=0.42 l=1
X214 VPWR.t9 ui_in[4].t5 distortionUnit_5.tgate_1.CTRLB distortionUnit_5.sky130_fd_sc_hd__tap_2_0.VPB sky130_fd_pr__pfet_01v8_hvt ad=0.135 pd=1.27 as=0.135 ps=1.27 w=1 l=0.15
X215 VPWR.t111 ui_in[1].t8 distortionUnit_2.tgate_1.CTRLB distortionUnit_2.sky130_fd_sc_hd__tap_2_0.VPB sky130_fd_pr__pfet_01v8_hvt ad=0.26 pd=2.52 as=0.135 ps=1.27 w=1 l=0.15
X216 VPWR.t174 a_20934_16677# distortionUnit_7.tgate_1.IN VPWR.t173 sky130_fd_pr__pfet_01v8 ad=0.145 pd=1.29 as=0.145 ps=1.29 w=1 l=1
X217 distortionUnit_4.tgate_1.CTRLB ui_in[3].t9 VPWR.t157 distortionUnit_4.sky130_fd_sc_hd__tap_2_0.VPB sky130_fd_pr__pfet_01v8_hvt ad=0.135 pd=1.27 as=0.135 ps=1.27 w=1 l=0.15
X218 bufferUnit_0.tgate_1.IN bufferUnit_0.tgate_1.IN a_7994_36483# VGND.t213 sky130_fd_pr__nfet_01v8 ad=0.145 pd=1.29 as=0.145 ps=1.29 w=1 l=1